@<TRIPOS>MOLECULE
lig
  61   64 0 0 0
SMALL
NO_CHARGES


@<TRIPOS>ATOM
      1 C_00        -13.4898    0.6927  -23.5150 c4      1  lig      -0.204431
      2 C_01        -13.6137    2.0669  -23.3311 c5      1  lig      -0.048770
      3 C_02        -14.3483    2.8320  -24.2443 c6      1  lig       0.019556
      4 C_03        -14.9555    2.2117  -25.3430 c7      1  lig      -0.138417
      5 C_04        -14.8078    0.8431  -25.5378 c8      1  lig      -0.185113
      6 C_05        -14.0829    0.0885  -24.6204 c9      1  lig      -0.096311
      7 C_06        -14.5037    4.3387  -24.0692 cb      1  lig      -0.020326
      8 C_07        -13.3763    5.1452  -24.7494 ci      1  lig      -0.006173
      9 C_08        -13.7229    6.6496  -24.7957 cj      1  lig      -0.210476
     10 C_09        -12.8203    9.3674  -24.9975 ck      1  lig      -0.351879
     11 N_0a        -14.7546    4.7493  -22.6812 n0      1  lig       0.011019
     12 N_0b        -13.7633    5.1652  -21.8793 ng      1  lig      -0.398537
     13 C_0c        -14.3346    5.3709  -20.7153 cm      1  lig       0.086919
     14 C_0d        -15.7116    5.0727  -20.7167 cn      1  lig       0.016099
     15 C_0e        -15.9515    4.6774  -22.0195 co      1  lig      -0.163631
     16 N_0f        -16.6566    5.1176  -19.7057 nr      1  lig      -0.374685
     17 C_0g        -16.4210    5.4177  -18.4067 cq      1  lig       0.571765
     18 O_0h        -15.3180    5.7289  -17.9530 o0      1  lig      -0.548567
     19 C_0i        -17.5819    5.3352  -17.5364 cr      1  lig       0.099754
     20 C_0j        -17.5997    5.7517  -16.1797 cs      1  lig      -0.001223
     21 C_0k        -18.8534    5.3920  -15.7099 ct      1  lig      -0.034340
     22 N_0l        -19.5080    4.8636  -16.7811 nw      1  lig      -0.082858
     23 N_0m        -18.7486    4.8072  -17.8765 nA      1  lig      -0.480490
     24 C_0n        -19.3932    5.5761  -14.3021 cw      1  lig      -0.102865
     25 C_0o        -18.2072    5.7966  -13.3120 cA      1  lig       0.369674
     26 C_0p        -17.2148    6.8342  -13.9227 cB      1  lig      -0.048597
     27 C_0q        -16.5662    6.4148  -15.2706 cC      1  lig      -0.068359
     28 C_0r        -18.7767    6.3763  -12.0002 cD      1  lig      -0.226744
     29 C_0s        -17.4785    4.4567  -13.0510 cE      1  lig      -0.105185
     30 H_0t        -12.9242    0.0967  -22.8143 h0      1  lig       0.149034
     31 H_0u        -13.1364    2.5335  -22.4825 h6      1  lig       0.142345
     32 H_0v        -15.5567    2.7784  -26.0462 h7      1  lig       0.124956
     33 H_0w        -15.2426    0.3744  -26.4071 h8      1  lig       0.149126
     34 H_0x        -13.9690   -0.9747  -24.7738 h9      1  lig       0.132440
     35 H_0y        -15.4038    4.6132  -24.6043 hb      1  lig       0.107732
     36 H_0z        -13.2225    4.7737  -25.7652 hd      1  lig       0.070306
     37 H_10        -12.4281    4.9712  -24.2332 he      1  lig       0.070306
     38 H_11        -13.8982    7.0581  -23.8043 hf      1  lig       0.104652
     39 H_12        -14.5940    6.8496  -25.4135 hg      1  lig       0.104652
     40 H_13        -12.0271   10.0259  -25.3367 hh      1  lig       0.139428
     41 H_14        -13.7682    9.6008  -25.4708 hi      1  lig       0.139428
     42 H_15        -12.8919    9.3636  -23.9137 hj      1  lig       0.139428
     43 H_16        -13.7504    5.7132  -19.8740 hk      1  lig       0.153622
     44 H_17        -16.8393    4.3292  -22.5251 hl      1  lig       0.190994
     45 H_18        -17.6051    4.8901  -19.9706 hm      1  lig       0.301122
     46 H_19        -20.4542    4.4986  -16.7558 hq      1  lig       0.328494
     47 H_1a        -19.9970    4.7252  -13.9965 hr      1  lig       0.041338
     48 H_1b        -20.0571    6.4398  -14.2866 ht      1  lig       0.041338
     49 H_1c        -16.4221    7.0627  -13.2087 hu      1  lig       0.008956
     50 H_1d        -17.7379    7.7803  -14.0739 hv      1  lig       0.008956
     51 H_1e        -16.1201    7.2867  -15.7491 hy      1  lig       0.048050
     52 H_1f        -15.7394    5.7330  -15.0849 hz      1  lig       0.048050
     53 H_1g        -17.9876    6.6155  -11.2869 hA      1  lig       0.037717
     54 H_1h        -19.3488    7.2848  -12.1674 hB      1  lig       0.037717
     55 H_1i        -19.4480    5.6709  -11.5156 hC      1  lig       0.037717
     56 H_1j        -16.6386    4.5918  -12.3694 hD      1  lig       0.010867
     57 H_1k        -18.1450    3.7190  -12.6043 hE      1  lig       0.010867
     58 H_1l        -17.0860    4.0159  -13.9637 hF      1  lig       0.010867
     59 S_1m        -12.3432    7.6633  -25.5178 s0      1  lig       0.972944
     60 O_1n        -11.1019    7.3339  -24.8257 o1      1  lig      -0.562126
     61 O_1o        -12.4510    7.6006  -26.9743 o2      1  lig      -0.578132
@<TRIPOS>BOND
     1     1     2    2
     2     1     6    1
     3     1    30    1
     4     2     3    1
     5     2    31    1
     6     3     4    2
     7     3     7    1
     8     4     5    1
     9     4    32    1
    10     5     6    2
    11     5    33    1
    12     6    34    1
    13     7     8    1
    14     7    11    1
    15     7    35    1
    16     8     9    1
    17     8    36    1
    18     8    37    1
    19     9    38    1
    20     9    39    1
    21     9    59    1
    22    10    40    1
    23    10    41    1
    24    10    42    1
    25    10    59    1
    26    11    12    1
    27    11    15    1
    28    12    13    2
    29    13    14    1
    30    13    43    1
    31    14    15    2
    32    14    16    1
    33    15    44    1
    34    16    17    1
    35    16    45    1
    36    17    18    2
    37    17    19    1
    38    19    20    1
    39    19    23    2
    40    20    21    2
    41    20    27    1
    42    21    22    1
    43    21    24    1
    44    22    23    1
    45    22    46    1
    46    24    25    1
    47    24    47    1
    48    24    48    1
    49    25    26    1
    50    25    28    1
    51    25    29    1
    52    26    27    1
    53    26    49    1
    54    26    50    1
    55    27    51    1
    56    27    52    1
    57    28    53    1
    58    28    54    1
    59    28    55    1
    60    29    56    1
    61    29    57    1
    62    29    58    1
    63    59    60    2
    64    59    61    2
