@<TRIPOS>MOLECULE
lig
  58   61 0 0 0
SMALL
NO_CHARGES


@<TRIPOS>ATOM
      1 C_00        -13.4898    0.6927  -23.5150 c4      1  lig      -0.200055
      2 C_01        -13.6139    2.0668  -23.3310 c5      1  lig      -0.080443
      3 C_02        -14.3485    2.8323  -24.2442 c6      1  lig       0.003616
      4 C_03        -14.9509    2.2124  -25.3441 c7      1  lig      -0.122641
      5 C_04        -14.8079    0.8431  -25.5378 c8      1  lig      -0.179888
      6 C_05        -14.0829    0.0884  -24.6204 c9      1  lig      -0.085248
      7 C_06        -14.4976    4.3603  -24.0755 cb      1  lig      -0.016242
      8 C_07        -13.4475    5.2611  -24.7921 ci      1  lig      -0.071716
      9 C_08        -12.3241    6.0907  -27.4700 cj      1  lig      -0.415012
     10 N_09        -14.7545    4.7495  -22.6814 n0      1  lig       0.110682
     11 N_0a        -13.7632    5.1652  -21.8793 ng      1  lig      -0.476924
     12 C_0b        -14.3347    5.3709  -20.7153 ck      1  lig       0.115493
     13 C_0c        -15.7118    5.0727  -20.7167 cm      1  lig       0.016733
     14 C_0d        -15.9515    4.6774  -22.0195 cn      1  lig      -0.202343
     15 N_0e        -16.6564    5.1176  -19.7059 nr      1  lig      -0.372289
     16 C_0f        -16.4210    5.4177  -18.4067 co      1  lig       0.568114
     17 O_0g        -15.3180    5.7289  -17.9530 o0      1  lig      -0.552298
     18 C_0h        -17.5819    5.3352  -17.5364 cq      1  lig       0.106889
     19 C_0i        -17.5997    5.7517  -16.1797 cr      1  lig       0.002258
     20 C_0j        -18.8534    5.3920  -15.7099 cs      1  lig      -0.040641
     21 N_0k        -19.5080    4.8636  -16.7811 nw      1  lig      -0.077553
     22 N_0l        -18.7486    4.8072  -17.8765 nA      1  lig      -0.482612
     23 C_0m        -19.3932    5.5761  -14.3021 ct      1  lig      -0.105759
     24 C_0n        -18.2072    5.7966  -13.3120 cw      1  lig       0.366067
     25 C_0o        -17.2148    6.8342  -13.9227 cA      1  lig      -0.048468
     26 C_0p        -16.5662    6.4148  -15.2706 cB      1  lig      -0.068458
     27 C_0q        -18.7767    6.3763  -12.0002 cC      1  lig      -0.217974
     28 C_0r        -17.4785    4.4567  -13.0510 cD      1  lig      -0.102646
     29 H_0s        -12.9242    0.0967  -22.8143 h0      1  lig       0.144761
     30 H_0t        -13.1363    2.5335  -22.4825 h6      1  lig       0.152881
     31 H_0u        -15.5211    2.7912  -26.0577 h7      1  lig       0.147466
     32 H_0v        -15.2426    0.3744  -26.4071 h8      1  lig       0.147060
     33 H_0w        -13.9690   -0.9747  -24.7738 h9      1  lig       0.128390
     34 H_0x        -15.4038    4.6133  -24.6043 hb      1  lig       0.101453
     35 H_0y        -12.4525    5.1924  -24.3597 hd      1  lig       0.087623
     36 H_0z        -13.7674    6.3040  -24.7703 he      1  lig       0.087623
     37 H_10        -13.7505    5.7132  -19.8740 hf      1  lig       0.152506
     38 H_11        -16.8392    4.3292  -22.5251 hg      1  lig       0.205453
     39 H_12        -17.6051    4.8901  -19.9706 hh      1  lig       0.299929
     40 H_13        -20.4542    4.4986  -16.7558 hi      1  lig       0.328078
     41 H_14        -19.9970    4.7252  -13.9965 hj      1  lig       0.042523
     42 H_15        -20.0571    6.4398  -14.2866 hk      1  lig       0.042523
     43 H_16        -16.4221    7.0627  -13.2087 hl      1  lig       0.009653
     44 H_17        -17.7379    7.7803  -14.0739 hm      1  lig       0.009653
     45 H_18        -16.1201    7.2867  -15.7491 hq      1  lig       0.047184
     46 H_19        -15.7394    5.7330  -15.0849 hr      1  lig       0.047184
     47 H_1a        -17.9876    6.6155  -11.2869 ht      1  lig       0.035376
     48 H_1b        -19.3488    7.2848  -12.1674 hu      1  lig       0.035376
     49 H_1c        -19.4480    5.6709  -11.5156 hv      1  lig       0.035376
     50 H_1d        -16.6386    4.5918  -12.3694 hy      1  lig       0.010059
     51 H_1e        -18.1450    3.7190  -12.6043 hz      1  lig       0.010059
     52 H_1f        -17.0860    4.0159  -13.9637 hA      1  lig       0.010059
     53 S_1g        -13.3338    4.8074  -26.6123 s0      1  lig       0.951341
     54 O_1h        -12.5669    3.5784  -26.7341 o1      1  lig      -0.540446
     55 O_1i        -14.6721    4.8901  -27.1922 o2      1  lig      -0.570359
     56 H_1j        -12.8315    7.0462  -27.3886 hB      1  lig       0.156858
     57 H_1k        -12.2990    5.7553  -28.5042 hC      1  lig       0.156858
     58 H_1l        -11.3226    6.0900  -27.0521 hD      1  lig       0.156858
@<TRIPOS>BOND
     1     1     2    2
     2     1     6    1
     3     1    29    1
     4     2     3    1
     5     2    30    1
     6     3     4    2
     7     3     7    1
     8     4     5    1
     9     4    31    1
    10     5     6    2
    11     5    32    1
    12     6    33    1
    13     7     8    1
    14     7    10    1
    15     7    34    1
    16     8    35    1
    17     8    36    1
    18     8    53    1
    19     9    53    1
    20     9    56    1
    21     9    57    1
    22     9    58    1
    23    10    11    1
    24    10    14    1
    25    11    12    2
    26    12    13    1
    27    12    37    1
    28    13    14    2
    29    13    15    1
    30    14    38    1
    31    15    16    1
    32    15    39    1
    33    16    17    2
    34    16    18    1
    35    18    19    1
    36    18    22    2
    37    19    20    2
    38    19    26    1
    39    20    21    1
    40    20    23    1
    41    21    22    1
    42    21    40    1
    43    23    24    1
    44    23    41    1
    45    23    42    1
    46    24    25    1
    47    24    27    1
    48    24    28    1
    49    25    26    1
    50    25    43    1
    51    25    44    1
    52    26    45    1
    53    26    46    1
    54    27    47    1
    55    27    48    1
    56    27    49    1
    57    28    50    1
    58    28    51    1
    59    28    52    1
    60    53    54    2
    61    53    55    2
