@<TRIPOS>MOLECULE
lig
  65   69 0 0 0
SMALL
NO_CHARGES


@<TRIPOS>ATOM
      1 C_00        -13.4898    0.6927  -23.5150 c4      1  lig      -0.212467
      2 C_01        -13.6137    2.0669  -23.3311 c5      1  lig      -0.027100
      3 C_02        -14.3463    2.8338  -24.2446 c6      1  lig       0.060031
      4 C_03        -14.9508    2.2125  -25.3441 c7      1  lig      -0.149141
      5 C_04        -14.8077    0.8432  -25.5377 c8      1  lig      -0.179830
      6 C_05        -14.0828    0.0885  -24.6204 c9      1  lig      -0.103908
      7 C_06        -14.4997    4.3521  -24.0773 cb      1  lig      -0.057790
      8 N_07        -14.7564    4.7423  -22.6827 n0      1  lig       0.014978
      9 N_08        -13.7635    5.1650  -21.8793 ng      1  lig      -0.404489
     10 C_09        -14.3343    5.3710  -20.7154 ci      1  lig       0.093199
     11 C_0a        -15.7110    5.0729  -20.7169 cj      1  lig       0.032747
     12 C_0b        -15.9516    4.6774  -22.0196 ck      1  lig      -0.169649
     13 N_0c        -16.6576    5.1174  -19.7049 nr      1  lig      -0.384493
     14 C_0d        -16.4203    5.4178  -18.4066 cm      1  lig       0.564462
     15 O_0e        -15.3180    5.7289  -17.9532 o0      1  lig      -0.545590
     16 C_0f        -17.5819    5.3352  -17.5364 cn      1  lig       0.110728
     17 C_0g        -17.5997    5.7517  -16.1797 co      1  lig      -0.007359
     18 C_0h        -18.8534    5.3920  -15.7099 cq      1  lig      -0.041781
     19 N_0i        -19.5080    4.8636  -16.7811 nw      1  lig      -0.079614
     20 N_0j        -18.7486    4.8072  -17.8765 nA      1  lig      -0.481472
     21 C_0k        -19.3932    5.5761  -14.3021 cr      1  lig      -0.099294
     22 C_0l        -18.2072    5.7966  -13.3120 cs      1  lig       0.366378
     23 C_0m        -17.2148    6.8342  -13.9227 ct      1  lig      -0.053755
     24 C_0n        -16.5662    6.4148  -15.2706 cw      1  lig      -0.055645
     25 C_0o        -18.7767    6.3763  -12.0002 cA      1  lig      -0.250038
     26 C_0p        -17.4785    4.4567  -13.0510 cB      1  lig      -0.112396
     27 H_0q        -12.9242    0.0967  -22.8143 h0      1  lig       0.152998
     28 H_0r        -13.1364    2.5334  -22.4825 h6      1  lig       0.110947
     29 H_0s        -15.5212    2.7912  -26.0577 h7      1  lig       0.118882
     30 H_0t        -15.2420    0.3747  -26.4072 h8      1  lig       0.149063
     31 H_0u        -13.9690   -0.9746  -24.7738 h9      1  lig       0.134931
     32 H_0v        -15.4180    4.6106  -24.5958 hb      1  lig       0.121403
     33 H_0w        -12.4278    4.9143  -24.2980 hd      1  lig       0.048422
     34 H_0x        -13.7504    5.7132  -19.8740 he      1  lig       0.147171
     35 H_0y        -16.8393    4.3292  -22.5252 hf      1  lig       0.188915
     36 H_0z        -17.6051    4.8901  -19.9706 hg      1  lig       0.302807
     37 H_10        -20.4542    4.4986  -16.7558 hh      1  lig       0.328817
     38 H_11        -19.9970    4.7252  -13.9965 hi      1  lig       0.042603
     39 H_12        -20.0571    6.4398  -14.2866 hj      1  lig       0.042603
     40 H_13        -16.4221    7.0627  -13.2087 hk      1  lig       0.010837
     41 H_14        -17.7379    7.7803  -14.0739 hl      1  lig       0.010837
     42 H_15        -16.1201    7.2867  -15.7491 hm      1  lig       0.045461
     43 H_16        -15.7394    5.7330  -15.0849 hq      1  lig       0.045461
     44 H_17        -17.9876    6.6155  -11.2869 hr      1  lig       0.044778
     45 H_18        -19.3488    7.2848  -12.1674 ht      1  lig       0.044778
     46 H_19        -19.4480    5.6709  -11.5156 hu      1  lig       0.044778
     47 H_1a        -16.6386    4.5918  -12.3694 hv      1  lig       0.013309
     48 H_1b        -18.1450    3.7190  -12.6043 hy      1  lig       0.013309
     49 H_1c        -17.0860    4.0159  -13.9637 hz      1  lig       0.013309
     50 C_1d        -12.4712    7.5903  -25.1862 cC      1  lig      -0.142259
     51 C_1e        -13.5970    6.7186  -24.6028 cD      1  lig      -0.085154
     52 C_1f        -13.3705    5.1856  -24.7782 cE      1  lig       0.035194
     53 C_1g        -13.2624    4.7966  -26.2823 cF      1  lig      -0.097784
     54 C_1h        -12.1359    5.5015  -27.0600 cG      1  lig      -0.149295
     55 H_1i        -11.4939    7.3257  -24.7899 hA      1  lig       0.099689
     56 H_1j        -12.6421    8.6518  -25.0331 hB      1  lig       0.099689
     57 H_1k        -14.5560    6.9922  -25.0479 hC      1  lig       0.068230
     58 H_1l        -13.6942    6.9938  -23.5542 hD      1  lig       0.068230
     59 H_1m        -13.0890    3.7253  -26.3810 hE      1  lig       0.061421
     60 H_1n        -14.2233    4.9789  -26.7729 hF      1  lig       0.061421
     61 H_1o        -11.1555    5.3092  -26.6323 hG      1  lig       0.099640
     62 H_1p        -12.1239    5.2201  -28.1101 hH      1  lig       0.099640
     63 S_1q        -12.3812    7.3477  -27.0275 s0      1  lig       0.930843
     64 O_1r        -13.6787    7.6882  -27.6146 o1      1  lig      -0.565914
     65 O_1s        -11.1738    7.9993  -27.5300 o2      1  lig      -0.586722
@<TRIPOS>BOND
     1     1     2    2
     2     1     6    1
     3     1    27    1
     4     2     3    1
     5     2    28    1
     6     3     4    2
     7     3     7    1
     8     4     5    1
     9     4    29    1
    10     5     6    2
    11     5    30    1
    12     6    31    1
    13     7     8    1
    14     7    32    1
    15     7    52    1
    16     8     9    1
    17     8    12    1
    18     9    10    2
    19    10    11    1
    20    10    34    1
    21    11    12    2
    22    11    13    1
    23    12    35    1
    24    13    14    1
    25    13    36    1
    26    14    15    2
    27    14    16    1
    28    16    17    1
    29    16    20    2
    30    17    18    2
    31    17    24    1
    32    18    19    1
    33    18    21    1
    34    19    20    1
    35    19    37    1
    36    21    22    1
    37    21    38    1
    38    21    39    1
    39    22    23    1
    40    22    25    1
    41    22    26    1
    42    23    24    1
    43    23    40    1
    44    23    41    1
    45    24    42    1
    46    24    43    1
    47    25    44    1
    48    25    45    1
    49    25    46    1
    50    26    47    1
    51    26    48    1
    52    26    49    1
    53    33    52    1
    54    50    51    1
    55    50    55    1
    56    50    56    1
    57    50    63    1
    58    51    52    1
    59    51    57    1
    60    51    58    1
    61    52    53    1
    62    53    54    1
    63    53    59    1
    64    53    60    1
    65    54    61    1
    66    54    62    1
    67    54    63    1
    68    63    64    2
    69    63    65    2
