@<TRIPOS>MOLECULE
lig
  63   66 0 0 0
SMALL
NO_CHARGES


@<TRIPOS>ATOM
      1 C_00        -13.4898    0.6927  -23.5150 c4      1  lig      -0.222122
      2 C_01        -13.6138    2.0669  -23.3311 c5      1  lig      -0.027358
      3 C_02        -14.3483    2.8321  -24.2442 c6      1  lig       0.048765
      4 C_03        -14.9508    2.2125  -25.3442 c7      1  lig      -0.164796
      5 C_04        -14.8079    0.8431  -25.5378 c8      1  lig      -0.188830
      6 C_05        -14.0829    0.0885  -24.6204 c9      1  lig      -0.094352
      7 C_06        -14.4998    4.3435  -24.0709 cb      1  lig      -0.042039
      8 C_07        -13.3625    5.1334  -24.7688 ci      1  lig      -0.012996
      9 C_08        -13.6584    6.6445  -24.9023 cj      1  lig      -0.038355
     10 N_09        -12.5806    7.3692  -25.5804 n0      1  lig      -0.304081
     11 C_0a        -12.7615    8.8050  -25.3999 ck      1  lig      -0.088062
     12 C_0b        -12.5168    7.0700  -27.0106 cm      1  lig      -0.161549
     13 N_0c        -14.7544    4.7495  -22.6813 ng      1  lig       0.014991
     14 N_0d        -13.7636    5.1650  -21.8794 nr      1  lig      -0.356351
     15 C_0e        -14.3343    5.3710  -20.7154 cn      1  lig       0.054454
     16 C_0f        -15.7111    5.0729  -20.7169 co      1  lig       0.026001
     17 C_0g        -15.9516    4.6773  -22.0196 cq      1  lig      -0.176535
     18 N_0h        -16.6575    5.1174  -19.7051 nw      1  lig      -0.376826
     19 C_0i        -16.4210    5.4177  -18.4067 cr      1  lig       0.580199
     20 O_0j        -15.3180    5.7289  -17.9530 o0      1  lig      -0.547880
     21 C_0k        -17.5819    5.3352  -17.5364 cs      1  lig       0.092735
     22 C_0l        -17.5997    5.7517  -16.1797 ct      1  lig       0.000619
     23 C_0m        -18.8534    5.3920  -15.7099 cw      1  lig      -0.042344
     24 N_0n        -19.5080    4.8636  -16.7811 nA      1  lig      -0.077512
     25 N_0o        -18.7486    4.8072  -17.8765 nB      1  lig      -0.477970
     26 C_0p        -19.3932    5.5761  -14.3021 cA      1  lig      -0.104643
     27 C_0q        -18.2072    5.7966  -13.3120 cB      1  lig       0.375095
     28 C_0r        -17.2148    6.8342  -13.9227 cC      1  lig      -0.046105
     29 C_0s        -16.5662    6.4148  -15.2706 cD      1  lig      -0.055436
     30 C_0t        -18.7767    6.3763  -12.0002 cE      1  lig      -0.236375
     31 C_0u        -17.4785    4.4567  -13.0510 cF      1  lig      -0.104743
     32 H_0v        -12.9242    0.0967  -22.8143 h0      1  lig       0.150960
     33 H_0w        -13.1364    2.5334  -22.4825 h6      1  lig       0.126043
     34 H_0x        -15.5211    2.7912  -26.0577 h7      1  lig       0.130158
     35 H_0y        -15.2425    0.3744  -26.4071 h8      1  lig       0.147577
     36 H_0z        -13.9690   -0.9747  -24.7738 h9      1  lig       0.129204
     37 H_10        -15.4037    4.6133  -24.6043 hb      1  lig       0.097640
     38 H_11        -13.2276    4.7079  -25.7633 hd      1  lig       0.051438
     39 H_12        -12.4197    4.9797  -24.2405 he      1  lig       0.051438
     40 H_13        -13.7850    7.0559  -23.8995 hf      1  lig       0.067848
     41 H_14        -14.6049    6.8064  -25.4211 hg      1  lig       0.067848
     42 H_15        -11.9494    9.3575  -25.8736 hh      1  lig       0.066810
     43 H_16        -13.7042    9.1554  -25.8217 hi      1  lig       0.066810
     44 H_17        -12.7480    9.0614  -24.3400 hj      1  lig       0.066810
     45 H_18        -11.7448    7.6688  -27.4963 hk      1  lig       0.078175
     46 H_19        -12.2597    6.0267  -27.1884 hl      1  lig       0.078175
     47 H_1a        -13.4658    7.2769  -27.5074 hm      1  lig       0.078175
     48 H_1b        -13.7503    5.7132  -19.8741 hq      1  lig       0.151048
     49 H_1c        -16.8393    4.3292  -22.5251 hr      1  lig       0.194411
     50 H_1d        -17.6051    4.8901  -19.9706 ht      1  lig       0.296549
     51 H_1e        -20.4542    4.4986  -16.7558 hu      1  lig       0.325491
     52 H_1f        -19.9970    4.7252  -13.9965 hv      1  lig       0.041652
     53 H_1g        -20.0571    6.4398  -14.2866 hy      1  lig       0.041652
     54 H_1h        -16.4221    7.0627  -13.2087 hz      1  lig       0.007010
     55 H_1i        -17.7379    7.7803  -14.0739 hA      1  lig       0.007011
     56 H_1j        -16.1201    7.2867  -15.7491 hB      1  lig       0.043800
     57 H_1k        -15.7394    5.7330  -15.0849 hC      1  lig       0.043800
     58 H_1l        -17.9876    6.6155  -11.2869 hD      1  lig       0.039225
     59 H_1m        -19.3488    7.2848  -12.1674 hE      1  lig       0.039225
     60 H_1n        -19.4480    5.6709  -11.5156 hF      1  lig       0.039225
     61 H_1o        -16.6386    4.5918  -12.3694 hG      1  lig       0.009731
     62 H_1p        -18.1450    3.7190  -12.6043 hH      1  lig       0.009731
     63 H_1q        -17.0860    4.0159  -13.9637 hI      1  lig       0.009731
@<TRIPOS>BOND
     1     1     2    2
     2     1     6    1
     3     1    32    1
     4     2     3    1
     5     2    33    1
     6     3     4    2
     7     3     7    1
     8     4     5    1
     9     4    34    1
    10     5     6    2
    11     5    35    1
    12     6    36    1
    13     7     8    1
    14     7    13    1
    15     7    37    1
    16     8     9    1
    17     8    38    1
    18     8    39    1
    19     9    10    1
    20     9    40    1
    21     9    41    1
    22    10    11    1
    23    10    12    1
    24    11    42    1
    25    11    43    1
    26    11    44    1
    27    12    45    1
    28    12    46    1
    29    12    47    1
    30    13    14    1
    31    13    17    1
    32    14    15    2
    33    15    16    1
    34    15    48    1
    35    16    17    2
    36    16    18    1
    37    17    49    1
    38    18    19    1
    39    18    50    1
    40    19    20    2
    41    19    21    1
    42    21    22    1
    43    21    25    2
    44    22    23    2
    45    22    29    1
    46    23    24    1
    47    23    26    1
    48    24    25    1
    49    24    51    1
    50    26    27    1
    51    26    52    1
    52    26    53    1
    53    27    28    1
    54    27    30    1
    55    27    31    1
    56    28    29    1
    57    28    54    1
    58    28    55    1
    59    29    56    1
    60    29    57    1
    61    30    58    1
    62    30    59    1
    63    30    60    1
    64    31    61    1
    65    31    62    1
    66    31    63    1
