@<TRIPOS>MOLECULE
lig
  45   47 0 0 0
SMALL
NO_CHARGES


@<TRIPOS>ATOM
      1 C_00         38.2632   36.7144   17.0134 c4      1  lig      -0.278900
      2 C_01         34.5448   34.9770   21.1828 c5      1  lig       0.545100
      3 C_02         37.5969   36.1886   18.1373 c6      1  lig       0.216800
      4 C_03         34.0445   38.9756   23.7378 c7      1  lig       0.725500
      5 C_04         33.1562   38.9294   26.1332 c8      1  lig       0.230300
      6 C_05         34.8025   37.8108   21.4407 c9      1  lig      -0.054400
      7 C_06         35.2536   37.1252   20.2344 cb      1  lig      -0.312200
      8 C_07         37.6232   36.7427   15.7594 ci      1  lig       0.257500
      9 C_08         36.3272   36.2163   15.6228 cj      1  lig      -0.245200
     10 C_09         35.6719   35.6684   16.7395 ck      1  lig      -0.217400
     11 C_0a         34.3067   37.0366   22.5109 cm      1  lig       0.063300
     12 C_0b         34.8522   39.2088   21.6169 cn      1  lig       0.262800
     13 C_0c         35.1646   35.7815   20.1251 co      1  lig       0.142500
     14 C_0d         36.2931   35.6640   18.0028 cq      1  lig       0.200100
     15 C_0e         33.6690   34.8315   23.4618 cr      1  lig      -0.126300
     16 F_0f         38.1961   36.1968   19.3280 f0      1  lig      -0.156100
     17 O_0g         35.6498   35.0616   19.0536 o0      1  lig      -0.292900
     18 N_0h         34.4789   39.7925   22.7772 n0      1  lig      -0.690400
     19 O_0i         34.3290   33.7761   21.0235 o1      1  lig      -0.547800
     20 N_0j         34.2121   35.6181   22.3415 ng      1  lig      -0.038600
     21 N_0k         33.9306   37.6499   23.6560 nr      1  lig      -0.280100
     22 N_0l         33.6717   39.5652   24.9268 nw      1  lig      -0.545900
     23 H_0m         39.2585   37.1158   17.1165 h0      1  lig       0.193000
     24 C_0n         33.6129   37.5010   26.1619 cs      1  lig      -0.043700
     25 H_0o         35.7026   37.7356   19.4667 h6      1  lig       0.170000
     26 H_0p         35.8375   36.2249   14.6602 h7      1  lig       0.184500
     27 H_0q         34.6916   35.2304   16.6228 h8      1  lig       0.197500
     28 H_0r         35.2183   39.8565   20.8356 h9      1  lig       0.115500
     29 H_0s         34.0543   35.1876   24.4176 hb      1  lig       0.082200
     30 H_0t         32.5822   34.9190   23.4834 hd      1  lig       0.082200
     31 H_0u         33.9197   33.7705   23.4230 he      1  lig       0.082200
     32 H_0v         33.7904   40.5685   24.9712 hf      1  lig       0.316800
     33 F_0w         38.2365   37.2743   14.7019 f1      1  lig      -0.176900
     34 C_0x         33.6752   39.6520   27.3409 ct      1  lig       0.055500
     35 C_0y         31.6571   38.9824   26.1256 cw      1  lig      -0.409000
     36 O_0z         35.0843   39.6023   27.3496 o2      1  lig      -0.632700
     37 H_10         35.4164   40.0648   28.1225 hg      1  lig       0.434300
     38 H_11         33.3490   40.6916   27.3110 hh      1  lig       0.066500
     39 H_12         33.2898   39.1766   28.2429 hi      1  lig       0.066500
     40 H_13         31.2717   38.5070   27.0276 hj      1  lig       0.097500
     41 H_14         31.3299   40.0216   26.0951 hk      1  lig       0.097500
     42 H_15         31.2789   38.4570   25.2487 hl      1  lig       0.097500
     43 H_16         33.2328   37.0154   27.0607 hm      1  lig       0.021800
     44 H_17         33.2359   36.9806   25.2814 hq      1  lig       0.021800
     45 H_18         34.7024   37.4673   26.1645 hr      1  lig       0.021800
@<TRIPOS>BOND
     1     1     3    2
     2     1     8    1
     3     1    23    1
     4     2    13    1
     5     2    19    2
     6     2    20    1
     7     3    14    1
     8     3    16    1
     9     4    18    1
    10     4    21    2
    11     4    22    1
    12     5    22    1
    13     5    24    1
    14     5    34    1
    15     5    35    1
    16     6     7    1
    17     6    11    2
    18     6    12    1
    19     7    13    2
    20     7    25    1
    21     8     9    2
    22     8    33    1
    23     9    10    1
    24     9    26    1
    25    10    14    2
    26    10    27    1
    27    11    20    1
    28    11    21    1
    29    12    18    2
    30    12    28    1
    31    13    17    1
    32    14    17    1
    33    15    20    1
    34    15    29    1
    35    15    30    1
    36    15    31    1
    37    22    32    1
    38    24    43    1
    39    24    44    1
    40    24    45    1
    41    34    36    1
    42    34    38    1
    43    34    39    1
    44    35    40    1
    45    35    41    1
    46    35    42    1
    47    36    37    1
