@<TRIPOS>MOLECULE
lig
  43   46 0 0 0
SMALL
NO_CHARGES


@<TRIPOS>ATOM
      1 C_00         38.2632   36.7144   17.0134 c4      1  lig      -0.294200
      2 C_01         34.5448   34.9770   21.1828 c5      1  lig       0.590400
      3 C_02         37.5969   36.1886   18.1373 c6      1  lig       0.243800
      4 C_03         34.0445   38.9756   23.7378 c7      1  lig       0.964800
      5 C_04         34.8025   37.8108   21.4407 c8      1  lig      -0.077300
      6 C_05         35.2536   37.1252   20.2344 c9      1  lig      -0.341700
      7 C_06         37.6232   36.7427   15.7594 cb      1  lig       0.259800
      8 C_07         36.3272   36.2163   15.6228 ci      1  lig      -0.247200
      9 C_08         35.6719   35.6684   16.7395 cj      1  lig      -0.205600
     10 C_09         34.3067   37.0366   22.5109 ck      1  lig       0.329900
     11 C_0a         34.8522   39.2088   21.6169 cm      1  lig       0.255200
     12 C_0b         35.1646   35.7815   20.1251 cn      1  lig       0.190300
     13 C_0c         36.2931   35.6640   18.0028 co      1  lig       0.184100
     14 H_0d         33.8396   35.0786   23.1099 h0      1  lig       0.313400
     15 F_0e         38.1961   36.1968   19.3280 f0      1  lig      -0.161800
     16 O_0f         35.6498   35.0616   19.0536 o0      1  lig      -0.308600
     17 N_0g         34.4789   39.7925   22.7772 n0      1  lig      -0.737400
     18 O_0h         34.3290   33.7761   21.0235 o1      1  lig      -0.554700
     19 N_0i         34.2121   35.6181   22.3415 ng      1  lig      -0.377200
     20 N_0j         33.9306   37.6499   23.6560 nr      1  lig      -0.596400
     21 N_0k         33.6717   39.5652   24.9268 nw      1  lig      -0.755200
     22 H_0l         39.2585   37.1158   17.1165 h6      1  lig       0.196000
     23 H_0m         35.7026   37.7356   19.4667 h7      1  lig       0.175000
     24 H_0n         35.8375   36.2249   14.6602 h8      1  lig       0.185200
     25 H_0o         34.6916   35.2304   16.6228 h9      1  lig       0.195100
     26 H_0p         35.2183   39.8565   20.8356 hb      1  lig       0.127100
     27 H_0q         33.7904   40.5685   24.9712 hd      1  lig       0.339600
     28 F_0r         38.2365   37.2743   14.7019 f1      1  lig      -0.174600
     29 C_0s         32.3864   39.3434   28.5029 cq      1  lig       0.121100
     30 C_0t         32.8826   39.9949   27.2021 cr      1  lig      -0.098800
     31 C_0u         33.1625   38.9326   26.1269 cs      1  lig       0.289500
     32 C_0v         34.1671   37.8864   26.6357 ct      1  lig      -0.142600
     33 C_0w         33.6709   37.2349   27.9364 cw      1  lig       0.125700
     34 O_0x         33.3911   38.2971   29.0117 o2      1  lig      -0.404500
     35 H_0y         31.3999   38.8533   28.3203 he      1  lig       0.034300
     36 H_0z         32.2221   40.1260   29.2833 hf      1  lig       0.034300
     37 H_10         33.8171   40.5707   27.4078 hg      1  lig       0.059600
     38 H_11         32.1249   40.7262   26.8283 hh      1  lig       0.059600
     39 H_12         32.2074   38.4259   25.8477 hi      1  lig       0.003200
     40 H_13         34.3315   37.1039   25.8553 hj      1  lig       0.063600
     41 H_14         35.1537   38.3766   26.8183 hk      1  lig       0.063600
     42 H_15         32.7366   36.6591   27.7308 hl      1  lig       0.036800
     43 H_16         34.4286   36.5036   28.3103 hm      1  lig       0.036800
@<TRIPOS>BOND
     1     1     3    2
     2     1     7    1
     3     1    22    1
     4     2    12    1
     5     2    18    2
     6     2    19    1
     7     3    13    1
     8     3    15    1
     9     4    17    1
    10     4    20    2
    11     4    21    1
    12     5     6    1
    13     5    10    2
    14     5    11    1
    15     6    12    2
    16     6    23    1
    17     7     8    2
    18     7    28    1
    19     8     9    1
    20     8    24    1
    21     9    13    2
    22     9    25    1
    23    10    19    1
    24    10    20    1
    25    11    17    2
    26    11    26    1
    27    12    16    1
    28    13    16    1
    29    14    19    1
    30    21    27    1
    31    21    31    1
    32    29    30    1
    33    29    34    1
    34    29    35    1
    35    29    36    1
    36    30    31    1
    37    30    37    1
    38    30    38    1
    39    31    32    1
    40    31    39    1
    41    32    33    1
    42    32    40    1
    43    32    41    1
    44    33    34    1
    45    33    42    1
    46    33    43    1
