@<TRIPOS>MOLECULE
lig
  44   46 0 0 0
SMALL
NO_CHARGES


@<TRIPOS>ATOM
      1 C_00         38.2632   36.7144   17.0134 c4      1  lig      -0.278700
      2 C_01         34.5448   34.9770   21.1828 c5      1  lig       0.534200
      3 C_02         37.5969   36.1886   18.1373 c6      1  lig       0.217500
      4 C_03         34.0445   38.9756   23.7378 c7      1  lig       0.736600
      5 C_04         33.1562   38.9294   26.1332 c8      1  lig       0.060600
      6 C_05         34.8025   37.8108   21.4407 c9      1  lig      -0.080800
      7 C_06         35.2536   37.1252   20.2344 cb      1  lig      -0.338100
      8 C_07         37.6232   36.7427   15.7594 ci      1  lig       0.251100
      9 C_08         36.3272   36.2163   15.6228 cj      1  lig      -0.238700
     10 C_09         35.6719   35.6684   16.7395 ck      1  lig      -0.224000
     11 C_0a         34.3067   37.0366   22.5109 cm      1  lig       0.133000
     12 C_0b         34.8522   39.2088   21.6169 cn      1  lig       0.314200
     13 C_0c         35.1646   35.7815   20.1251 co      1  lig       0.165500
     14 C_0d         36.2931   35.6640   18.0028 cq      1  lig       0.215000
     15 C_0e         33.6690   34.8315   23.4618 cr      1  lig      -0.143500
     16 F_0f         38.1961   36.1968   19.3280 f0      1  lig      -0.158200
     17 O_0g         35.6498   35.0616   19.0536 o0      1  lig      -0.301800
     18 N_0h         34.4789   39.7925   22.7772 n0      1  lig      -0.731200
     19 O_0i         34.3290   33.7761   21.0235 o1      1  lig      -0.540400
     20 N_0j         34.2121   35.6181   22.3415 ng      1  lig      -0.029000
     21 N_0k         33.9306   37.6499   23.6560 nr      1  lig      -0.338500
     22 N_0l         33.6717   39.5652   24.9268 nw      1  lig      -0.546200
     23 H_0m         39.2585   37.1158   17.1165 h0      1  lig       0.194000
     24 H_0n         33.4882   37.8909   26.1541 h6      1  lig       0.075400
     25 H_0o         35.7026   37.7356   19.4667 h7      1  lig       0.173300
     26 H_0p         35.8375   36.2249   14.6602 h8      1  lig       0.184300
     27 H_0q         34.6916   35.2304   16.6228 h9      1  lig       0.200000
     28 H_0r         35.2183   39.8565   20.8356 hb      1  lig       0.111500
     29 H_0s         34.0543   35.1876   24.4176 hd      1  lig       0.081300
     30 H_0t         32.5822   34.9190   23.4834 he      1  lig       0.081300
     31 H_0u         33.9197   33.7705   23.4230 hf      1  lig       0.081300
     32 H_0v         33.7904   40.5685   24.9712 hg      1  lig       0.340100
     33 F_0w         38.2365   37.2743   14.7019 f1      1  lig      -0.173700
     34 C_0x         33.6752   39.6520   27.3409 cs      1  lig      -0.199800
     35 H_0y         32.0669   38.9679   26.1277 hh      1  lig       0.075400
     36 H_0z         34.7645   39.6136   27.3476 hi      1  lig       0.080600
     37 H_10         33.3490   40.6916   27.3110 hj      1  lig       0.080600
     38 C_11         33.5527   39.5830   30.0407 ct      1  lig      -0.375300
     39 S_12         33.0280   38.8532   28.8398 s0      1  lig       1.030600
     40 O_13         31.5525   38.9898   28.8329 o2      1  lig      -0.586100
     41 O_14         33.5502   37.4673   28.8828 o3      1  lig      -0.569300
     42 H_15         34.6390   39.4992   30.0715 hk      1  lig       0.145300
     43 H_16         33.2715   40.6343   29.9791 hl      1  lig       0.145300
     44 H_17         33.1293   39.1467   30.9454 hm      1  lig       0.145300
@<TRIPOS>BOND
     1     1     3    2
     2     1     8    1
     3     1    23    1
     4     2    13    1
     5     2    19    2
     6     2    20    1
     7     3    14    1
     8     3    16    1
     9     4    18    1
    10     4    21    2
    11     4    22    1
    12     5    22    1
    13     5    24    1
    14     5    34    1
    15     5    35    1
    16     6     7    1
    17     6    11    2
    18     6    12    1
    19     7    13    2
    20     7    25    1
    21     8     9    2
    22     8    33    1
    23     9    10    1
    24     9    26    1
    25    10    14    2
    26    10    27    1
    27    11    20    1
    28    11    21    1
    29    12    18    2
    30    12    28    1
    31    13    17    1
    32    14    17    1
    33    15    20    1
    34    15    29    1
    35    15    30    1
    36    15    31    1
    37    22    32    1
    38    34    36    1
    39    34    37    1
    40    34    39    1
    41    38    39    1
    42    38    42    1
    43    38    43    1
    44    38    44    1
    45    39    40    2
    46    39    41    2
