@<TRIPOS>MOLECULE
lig
  48   51 0 0 0
SMALL
NO_CHARGES


@<TRIPOS>ATOM
      1 C_00         31.6235   38.9529   26.1544 c4      1  lig      -0.162200
      2 C_01         31.0952   38.3551   27.4684 c5      1  lig       0.165700
      3 C_02         33.0541   38.9788   28.6539 c6      1  lig       0.122100
      4 C_03         33.6809   39.6144   27.4031 c7      1  lig      -0.099700
      5 C_04         38.3660   36.7077   16.8209 c8      1  lig      -0.229400
      6 O_05         31.6350   39.0631   28.5784 o0      1  lig      -0.408600
      7 C_06         34.5448   34.9770   21.1828 c9      1  lig       0.486400
      8 C_07         37.6997   36.1819   17.9448 cb      1  lig       0.183200
      9 C_08         34.0445   38.9756   23.7378 ci      1  lig       0.800700
     10 C_09         33.1562   38.9294   26.1332 cj      1  lig       0.198200
     11 C_0a         34.8025   37.8108   21.4407 ck      1  lig      -0.049700
     12 C_0b         35.2536   37.1252   20.2344 cm      1  lig      -0.323900
     13 C_0c         36.4300   36.2096   15.4303 cn      1  lig      -0.192500
     14 C_0d         35.7747   35.6617   16.5471 co      1  lig      -0.250700
     15 C_0e         34.3067   37.0366   22.5109 cq      1  lig       0.148300
     16 C_0f         34.8522   39.2088   21.6169 cr      1  lig       0.275900
     17 C_0g         35.1646   35.7815   20.1251 cs      1  lig      -0.011800
     18 C_0h         36.3960   35.6573   17.8103 ct      1  lig       0.018200
     19 C_0i         33.6690   34.8315   23.4618 cw      1  lig      -0.113500
     20 F_0j         38.2989   36.1901   19.1355 f0      1  lig      -0.165700
     21 C_0k         35.6924   34.9985   18.9596 cA      1  lig      -0.065800
     22 N_0l         34.4789   39.7925   22.7772 n0      1  lig      -0.708600
     23 O_0m         34.3290   33.7761   21.0235 o1      1  lig      -0.557100
     24 N_0n         34.2121   35.6181   22.3415 ng      1  lig      -0.006200
     25 N_0o         33.9306   37.6499   23.6560 nr      1  lig      -0.411900
     26 N_0p         33.6717   39.5652   24.9268 nw      1  lig      -0.646600
     27 H_0q         31.2200   38.3997   25.3053 h0      1  lig       0.068600
     28 H_0r         31.2771   39.9808   26.0536 h6      1  lig       0.068600
     29 H_0s         30.0102   38.4341   27.5066 h7      1  lig       0.026900
     30 H_0t         31.3432   37.2955   27.5444 h8      1  lig       0.026900
     31 H_0u         33.3652   37.9383   28.7608 h9      1  lig       0.036100
     32 H_0v         33.3890   39.5054   29.5480 hb      1  lig       0.036100
     33 H_0w         33.4274   40.6742   27.3922 hd      1  lig       0.064700
     34 H_0x         34.7681   39.5450   27.4512 he      1  lig       0.064700
     35 H_0y         39.3613   37.1091   16.9241 hf      1  lig       0.176600
     36 H_0z         33.4882   37.8909   26.1541 hg      1  lig       0.014300
     37 H_10         35.7026   37.7356   19.4667 hh      1  lig       0.190600
     38 H_11         35.9403   36.2182   14.4678 hi      1  lig       0.165000
     39 H_12         34.7945   35.2237   16.4304 hj      1  lig       0.191400
     40 H_13         35.2183   39.8565   20.8356 hk      1  lig       0.113100
     41 H_14         34.0543   35.1876   24.4176 hl      1  lig       0.072200
     42 H_15         32.5822   34.9190   23.4834 hm      1  lig       0.072200
     43 H_16         33.9197   33.7705   23.4230 hq      1  lig       0.072200
     44 H_17         33.7904   40.5685   24.9712 hr      1  lig       0.325200
     45 H_18         36.4277   34.2745   19.3107 ht      1  lig       0.082600
     46 H_19         34.8709   34.4738   18.4718 hu      1  lig       0.082600
     47 C_1a         37.7595   36.7642   15.5101 cB      1  lig       0.232300
     48 F_1b         38.3816   37.2891   14.4545 f1      1  lig      -0.177700
@<TRIPOS>BOND
     1     1     2    1
     2     1    10    1
     3     1    27    1
     4     1    28    1
     5     2     6    1
     6     2    29    1
     7     2    30    1
     8     3     4    1
     9     3     6    1
    10     3    31    1
    11     3    32    1
    12     4    10    1
    13     4    33    1
    14     4    34    1
    15     5     8    2
    16     5    35    1
    17     5    47    1
    18     7    17    1
    19     7    23    2
    20     7    24    1
    21     8    18    1
    22     8    20    1
    23     9    22    1
    24     9    25    2
    25     9    26    1
    26    10    26    1
    27    10    36    1
    28    11    12    1
    29    11    15    2
    30    11    16    1
    31    12    17    2
    32    12    37    1
    33    13    14    1
    34    13    38    1
    35    13    47    2
    36    14    18    2
    37    14    39    1
    38    15    24    1
    39    15    25    1
    40    16    22    2
    41    16    40    1
    42    17    21    1
    43    18    21    1
    44    19    24    1
    45    19    41    1
    46    19    42    1
    47    19    43    1
    48    21    45    1
    49    21    46    1
    50    26    44    1
    51    47    48    1
