@<TRIPOS>MOLECULE
lig
  46   49 0 0 0
SMALL
NO_CHARGES


@<TRIPOS>ATOM
      1 F_00         38.1822   37.2781   14.6780 f0      1  lig      -0.176100
      2 C_01         37.6121   36.6927   15.7561 c4      1  lig       0.258200
      3 C_02         36.3306   36.1234   15.6494 c5      1  lig      -0.248400
      4 C_03         35.7306   35.5282   16.7729 c6      1  lig      -0.201500
      5 C_04         38.2935   36.6633   16.9880 c7      1  lig      -0.270100
      6 C_05         37.6845   36.0889   18.1187 c8      1  lig       0.214900
      7 F_06         38.3244   36.1063   19.3118 f1      1  lig      -0.154500
      8 C_07         36.3984   35.5157   18.0135 c9      1  lig       0.182200
      9 O_08         35.8110   34.8859   19.0798 o0      1  lig      -0.286000
     10 C_09         35.2195   35.5980   20.0991 cb      1  lig       0.148500
     11 C_0a         34.4802   34.7957   21.0797 ci      1  lig       0.540800
     12 O_0b         34.3267   33.5841   20.9220 o1      1  lig      -0.543800
     13 N_0c         33.9629   35.4463   22.1618 n0      1  lig      -0.050800
     14 C_0d         33.2518   34.6745   23.1957 cj      1  lig      -0.086200
     15 C_0e         34.0492   36.8642   22.3395 ck      1  lig       0.170700
     16 N_0f         33.5187   37.4796   23.4172 ng      1  lig      -0.438300
     17 C_0g         35.3129   36.9423   20.2265 cm      1  lig      -0.326700
     18 C_0h         34.7216   37.6302   21.3651 cn      1  lig      -0.074900
     19 C_0i         34.8051   39.0231   21.5733 co      1  lig       0.270300
     20 N_0j         34.2844   39.6080   22.6737 nr      1  lig      -0.708100
     21 C_0k         33.6693   38.7965   23.5368 cq      1  lig       0.851300
     22 N_0l         33.1669   39.3731   24.6802 nw      1  lig      -0.735400
     23 C_0m         32.3829   38.7485   25.7392 cr      1  lig       0.351200
     24 C_0n         31.2835   39.7010   26.2143 cs      1  lig      -0.363300
     25 C_0o         33.2806   38.2181   26.8795 ct      1  lig      -0.134100
     26 N_0p         34.1195   39.2305   27.5029 nA      1  lig       0.697500
     27 N_0q         35.4196   39.3870   27.1864 nB      1  lig      -0.587700
     28 C_0r         35.7283   40.3837   28.0005 cw      1  lig       0.425400
     29 N_0s         34.6917   40.8108   28.7755 nC      1  lig      -0.396600
     30 N_0t         33.6769   40.0724   28.4600 nD      1  lig      -0.268900
     31 H_0u         35.8087   36.1396   14.7051 h0      1  lig       0.184900
     32 H_0v         34.7581   35.0717   16.6856 h6      1  lig       0.194100
     33 H_0w         39.2725   37.1079   17.0714 h7      1  lig       0.190600
     34 H_0x         33.5091   35.0233   24.1968 h8      1  lig       0.071600
     35 H_0y         32.1747   34.7905   23.0693 h9      1  lig       0.071600
     36 H_0z         33.4769   33.6071   23.1940 hb      1  lig       0.071600
     37 H_10         35.8510   37.5522   19.5179 hd      1  lig       0.175500
     38 H_11         35.3118   39.6636   20.8677 he      1  lig       0.122100
     39 H_12         33.3603   40.3585   24.7950 hf      1  lig       0.347400
     40 H_13         31.8690   37.8864   25.3123 hg      1  lig       0.029100
     41 H_14         30.6714   39.2416   26.9915 hh      1  lig       0.105200
     42 H_15         31.6923   40.6282   26.6121 hi      1  lig       0.105200
     43 H_16         30.6253   39.9573   25.3848 hj      1  lig       0.105200
     44 H_17         32.6658   37.7582   27.6539 hk      1  lig       0.039900
     45 H_18         33.9263   37.4259   26.4972 hl      1  lig       0.039900
     46 H_19         36.7183   40.8135   28.0374 hm      1  lig       0.086500
@<TRIPOS>BOND
     1     1     2    1
     2     2     3    2
     3     2     5    1
     4     3     4    1
     5     3    31    1
     6     4     8    2
     7     4    32    1
     8     5     6    2
     9     5    33    1
    10     6     7    1
    11     6     8    1
    12     8     9    1
    13     9    10    1
    14    10    11    1
    15    10    17    2
    16    11    12    2
    17    11    13    1
    18    13    14    1
    19    13    15    1
    20    14    34    1
    21    14    35    1
    22    14    36    1
    23    15    16    2
    24    15    18    1
    25    16    21    1
    26    17    18    1
    27    17    37    1
    28    18    19    2
    29    19    20    1
    30    19    38    1
    31    20    21    2
    32    21    22    1
    33    22    23    1
    34    22    39    1
    35    23    24    1
    36    23    25    1
    37    23    40    1
    38    24    41    1
    39    24    42    1
    40    24    43    1
    41    25    26    1
    42    25    44    1
    43    25    45    1
    44    26    27    1
    45    26    30    1
    46    27    28    2
    47    28    29    1
    48    28    46    1
    49    29    30    2
