@<TRIPOS>MOLECULE
lig
  46   49 0 0 0
SMALL
NO_CHARGES


@<TRIPOS>ATOM
      1 C_00         37.4499   36.1830   18.1487 c4      1  lig       0.209200
      2 C_01         38.1696   36.6865   17.0471 c5      1  lig      -0.268100
      3 C_02         33.9960   34.9417   23.6436 c6      1  lig      -0.044600
      4 C_03         36.1722   36.5213   15.6625 c7      1  lig      -0.255500
      5 C_04         34.9655   39.3394   21.6756 c8      1  lig       0.285800
      6 C_05         33.7550   39.0892   26.3355 c9      1  lig       0.424700
      7 C_06         32.2216   39.1946   26.4393 cb      1  lig      -0.339400
      8 C_07         34.4641   39.1128   23.8852 ci      1  lig       0.742800
      9 C_08         34.5805   35.1104   21.2894 cj      1  lig       0.522800
     10 C_09         35.0705   35.9158   20.1637 ck      1  lig       0.174100
     11 C_0a         35.1769   37.2591   20.2658 cm      1  lig      -0.337400
     12 C_0b         36.0947   35.8168   17.9992 cn      1  lig       0.187800
     13 C_0c         35.4579   36.0034   16.7577 co      1  lig      -0.195800
     14 C_0d         34.8891   37.9415   21.5155 cq      1  lig      -0.062400
     15 C_0e         34.5405   37.1689   22.6422 cr      1  lig       0.111400
     16 N_0f         34.2339   39.7075   25.1064 n0      1  lig      -0.669200
     17 C_0g         37.5311   36.8528   15.8039 cs      1  lig       0.257700
     18 F_0h         38.2117   37.3536   14.7474 f0      1  lig      -0.176100
     19 F_0i         38.0544   36.0747   19.3543 f1      1  lig      -0.153200
     20 O_0j         35.4035   35.2192   19.0260 o0      1  lig      -0.294100
     21 O_0k         34.3338   33.9107   21.1622 o1      1  lig      -0.540400
     22 N_0l         34.4048   35.7500   22.4822 ng      1  lig      -0.045300
     23 N_0m         34.3407   37.7866   23.8262 nr      1  lig      -0.316700
     24 N_0n         34.7556   39.9268   22.8724 nw      1  lig      -0.711200
     25 C_0o         34.4411   39.7232   27.5517 ct      1  lig      -0.217900
     26 N_0p         31.5339   38.4194   25.4203 nA      1  lig       0.619400
     27 N_0q         30.8990   38.9813   24.3738 nB      1  lig      -0.598600
     28 C_0r         30.4889   37.8869   23.7525 cw      1  lig       0.466400
     29 N_0s         30.8476   36.7261   24.3686 nC      1  lig      -0.416900
     30 N_0t         31.4960   37.0716   25.4318 nD      1  lig      -0.220100
     31 H_0u         39.2046   36.9661   17.1643 h0      1  lig       0.189300
     32 H_0v         34.2102   35.4192   24.5993 h6      1  lig       0.059700
     33 H_0w         32.9242   34.7447   23.6046 h7      1  lig       0.059700
     34 H_0x         34.5135   33.9818   23.6761 h8      1  lig       0.059700
     35 H_0y         35.6788   36.6645   14.7142 h9      1  lig       0.186500
     36 H_0z         35.2216   39.9823   20.8479 hb      1  lig       0.116200
     37 H_10         34.0323   38.0349   26.3317 hd      1  lig      -0.054900
     38 H_11         31.8876   38.8317   27.4111 he      1  lig       0.131500
     39 H_12         31.9109   40.2361   26.3605 hf      1  lig       0.131500
     40 H_13         35.5210   37.8681   19.4457 hg      1  lig       0.171800
     41 H_14         34.4186   35.7470   16.6436 hh      1  lig       0.192700
     42 H_15         34.3199   40.7153   25.1238 hi      1  lig       0.345900
     43 H_16         35.5262   39.6672   27.4624 hj      1  lig       0.064300
     44 H_17         34.1651   40.7716   27.6668 hk      1  lig       0.064300
     45 H_18         34.1597   39.2064   28.4698 hl      1  lig       0.064300
     46 H_19         29.9080   37.9177   22.8450 hm      1  lig       0.078300
@<TRIPOS>BOND
     1     1     2    2
     2     1    12    1
     3     1    19    1
     4     2    17    1
     5     2    31    1
     6     3    22    1
     7     3    32    1
     8     3    33    1
     9     3    34    1
    10     4    13    1
    11     4    17    2
    12     4    35    1
    13     5    14    2
    14     5    24    1
    15     5    36    1
    16     6     7    1
    17     6    16    1
    18     6    25    1
    19     6    37    1
    20     7    26    1
    21     7    38    1
    22     7    39    1
    23     8    16    1
    24     8    23    1
    25     8    24    2
    26     9    10    1
    27     9    21    2
    28     9    22    1
    29    10    11    2
    30    10    20    1
    31    11    14    1
    32    11    40    1
    33    12    13    2
    34    12    20    1
    35    13    41    1
    36    14    15    1
    37    15    22    1
    38    15    23    2
    39    16    42    1
    40    17    18    1
    41    25    43    1
    42    25    44    1
    43    25    45    1
    44    26    27    1
    45    26    30    1
    46    27    28    2
    47    28    29    1
    48    28    46    1
    49    29    30    2
