@<TRIPOS>MOLECULE
lig
  49   51 0 0 0
SMALL
NO_CHARGES


@<TRIPOS>ATOM
      1 C_00         38.3390   36.6732   17.0574 c4      1  lig      -0.286200
      2 C_01         37.6670   36.6212   15.8212 c5      1  lig       0.270400
      3 C_02         33.5281   39.4364   27.3316 c6      1  lig      -0.093100
      4 C_03         34.9049   38.7976   27.5610 c7      1  lig       0.283200
      5 C_04         31.4189   39.4188   25.9024 c8      1  lig      -0.224800
      6 C_05         33.4672   34.8125   23.3952 c9      1  lig      -0.141500
      7 F_06         38.3758   36.2250   19.4044 f0      1  lig      -0.160400
      8 C_07         37.7408   36.1338   18.2118 cb      1  lig       0.231600
      9 F_08         38.2121   37.1987   14.7266 f1      1  lig      -0.177000
     10 C_09         36.4167   35.9838   15.7308 ci      1  lig      -0.264500
     11 C_0a         35.8281   35.4259   16.8797 cj      1  lig      -0.194400
     12 C_0b         36.4736   35.5188   18.1281 ck      1  lig       0.181800
     13 O_0c         35.8847   34.9357   19.2218 o0      1  lig      -0.297800
     14 C_0d         35.3223   35.6836   20.2329 cm      1  lig       0.192300
     15 C_0e         35.4160   37.0309   20.3178 cn      1  lig      -0.367500
     16 C_0f         34.8964   37.7486   21.4749 co      1  lig      -0.079300
     17 C_0g         35.0144   39.1441   21.6469 cq      1  lig       0.342800
     18 N_0h         34.6050   39.7559   22.7793 n0      1  lig      -0.727900
     19 C_0i         34.6208   34.9125   21.2655 cr      1  lig       0.527300
     20 O_0j         34.4686   33.6966   21.1598 o1      1  lig      -0.537300
     21 N_0k         34.1449   35.5950   22.3469 ng      1  lig      -0.084100
     22 C_0l         34.2884   37.0112   22.5117 cs      1  lig       0.175000
     23 N_0m         33.8757   37.6552   23.6268 nr      1  lig      -0.376000
     24 C_0n         34.0662   38.9716   23.7113 ct      1  lig       0.661200
     25 N_0o         33.6452   39.5897   24.8695 nw      1  lig      -0.458200
     26 C_0p         32.9030   39.0189   25.9874 cw      1  lig       0.114200
     27 C_0q         30.6868   38.8865   24.6577 cA      1  lig       0.239900
     28 O_0r         30.6837   37.4753   24.6295 o2      1  lig      -0.633500
     29 O_0s         35.4267   39.1835   28.8127 o3      1  lig      -0.689700
     30 H_0t         39.2980   37.1604   17.1263 h0      1  lig       0.193900
     31 H_0u         32.8679   39.1262   28.1438 h6      1  lig       0.037100
     32 H_0v         33.5949   40.5219   27.3993 h7      1  lig       0.037100
     33 H_0w         34.8153   37.7129   27.5367 h8      1  lig       0.011800
     34 H_0x         35.6091   39.0891   26.7798 h9      1  lig       0.011800
     35 H_0y         30.8951   39.0627   26.7900 hb      1  lig       0.086500
     36 H_0z         31.3400   40.5063   25.9193 hd      1  lig       0.086500
     37 H_10         32.9976   35.4153   24.1717 he      1  lig       0.098400
     38 H_11         32.6714   34.1983   22.9705 hf      1  lig       0.098400
     39 H_12         34.1778   34.1485   23.8896 hg      1  lig       0.098400
     40 H_13         35.9016   35.9332   14.7836 hh      1  lig       0.189100
     41 H_14         34.8741   34.9279   16.8079 hi      1  lig       0.194700
     42 H_15         35.9270   37.6189   19.5731 hj      1  lig       0.181800
     43 H_16         35.4697   39.7635   20.8904 hk      1  lig       0.101600
     44 H_17         33.8423   40.5802   24.9319 hl      1  lig       0.309900
     45 H_18         32.9571   37.9315   25.9403 hm      1  lig       0.014900
     46 H_19         29.6539   39.2323   24.6588 hq      1  lig       0.005300
     47 H_1a         31.1447   39.2612   23.7430 hr      1  lig       0.005300
     48 H_1b         31.5770   37.1767   24.5410 ht      1  lig       0.389800
     49 H_1c         35.5690   40.1184   28.8033 hu      1  lig       0.421200
@<TRIPOS>BOND
     1     1     2    2
     2     1     8    1
     3     1    30    1
     4     2     9    1
     5     2    10    1
     6     3     4    1
     7     3    26    1
     8     3    31    1
     9     3    32    1
    10     4    29    1
    11     4    33    1
    12     4    34    1
    13     5    26    1
    14     5    27    1
    15     5    35    1
    16     5    36    1
    17     6    21    1
    18     6    37    1
    19     6    38    1
    20     6    39    1
    21     7     8    1
    22     8    12    2
    23    10    11    2
    24    10    40    1
    25    11    12    1
    26    11    41    1
    27    12    13    1
    28    13    14    1
    29    14    15    2
    30    14    19    1
    31    15    16    1
    32    15    42    1
    33    16    17    2
    34    16    22    1
    35    17    18    1
    36    17    43    1
    37    18    24    2
    38    19    20    2
    39    19    21    1
    40    21    22    1
    41    22    23    2
    42    23    24    1
    43    24    25    1
    44    25    26    1
    45    25    44    1
    46    26    45    1
    47    27    28    1
    48    27    46    1
    49    27    47    1
    50    28    48    1
    51    29    49    1
