@<TRIPOS>MOLECULE
lig
  41   43 0 0 0
SMALL
NO_CHARGES


@<TRIPOS>ATOM
      1 C_00         34.9076   39.1154   21.5907 c4      1  lig       0.279900
      2 C_01         34.0709   36.9986   22.3846 c5      1  lig       0.192500
      3 N_02         34.4455   39.7277   22.7024 n0      1  lig      -0.744700
      4 C_03         34.7548   37.7275   21.3918 c6      1  lig      -0.092000
      5 C_04         35.2950   37.0103   20.2460 c7      1  lig      -0.322000
      6 C_05         35.1390   35.6721   20.1250 c8      1  lig       0.133700
      7 C_06         34.3682   34.9095   21.1164 c9      1  lig       0.546700
      8 C_07         33.8227   38.9512   23.5893 cb      1  lig       0.888000
      9 C_08         32.6093   38.9831   25.8341 ci      1  lig       0.420700
     10 C_09         33.0071   39.6254   27.1688 cj      1  lig      -0.229500
     11 C_0a         31.1036   39.1058   25.5754 ck      1  lig      -0.317200
     12 C_0b         36.3552   35.5188   18.0595 cm      1  lig       0.165000
     13 C_0c         35.7370   35.5446   16.7957 cn      1  lig      -0.190800
     14 C_0d         36.4063   36.0920   15.6859 co      1  lig      -0.258100
     15 C_0e         37.7125   36.5912   15.8323 cq      1  lig       0.270100
     16 C_0f         38.3545   36.5250   17.0835 cr      1  lig      -0.296300
     17 C_0g         37.6744   36.0012   18.1998 cs      1  lig       0.240300
     18 F_0h         38.3423   37.1505   14.7742 f0      1  lig      -0.177000
     19 F_0i         38.2865   35.9641   19.4063 f1      1  lig      -0.157200
     20 O_0j         35.6958   34.9289   19.1092 o0      1  lig      -0.283900
     21 O_0k         34.1461   33.7090   20.9621 o1      1  lig      -0.548300
     22 N_0l         33.9060   35.5872   22.2067 ng      1  lig      -0.043000
     23 C_0m         33.1842   34.8573   23.2623 ct      1  lig      -0.119200
     24 N_0n         33.6031   37.6404   23.4789 nr      1  lig      -0.479900
     25 N_0o         33.3560   39.5693   24.7304 nw      1  lig      -0.719700
     26 H_0p         35.4259   39.7257   20.8689 h0      1  lig       0.120700
     27 H_0q         35.8585   37.5898   19.5322 h6      1  lig       0.175300
     28 H_0r         32.8600   37.9243   25.9000 h7      1  lig      -0.028400
     29 H_0s         34.0800   39.5427   27.3436 h8      1  lig       0.060400
     30 H_0t         32.7423   40.6808   27.1972 h9      1  lig       0.060400
     31 H_0u         32.4989   39.1386   28.0016 hb      1  lig       0.060400
     32 H_0v         30.8133   38.5729   24.6694 hd      1  lig       0.075300
     33 H_0w         30.5297   38.6851   26.4010 he      1  lig       0.075300
     34 H_0x         30.8112   40.1484   25.4520 hf      1  lig       0.075300
     35 H_0y         34.7428   35.1444   16.6797 hg      1  lig       0.194100
     36 H_0z         35.9140   36.1326   14.7266 hh      1  lig       0.184900
     37 H_10         39.3585   36.9029   17.1929 hi      1  lig       0.195400
     38 H_11         33.2503   33.7705   23.1972 hj      1  lig       0.080100
     39 H_12         33.5836   35.1186   24.2423 hk      1  lig       0.080100
     40 H_13         32.1271   35.1256   23.2468 hl      1  lig       0.080100
     41 H_14         33.5759   40.5519   24.8165 hm      1  lig       0.352500
@<TRIPOS>BOND
     1     1     3    2
     2     1     4    1
     3     1    26    1
     4     2     4    2
     5     2    22    1
     6     2    24    1
     7     3     8    1
     8     4     5    1
     9     5     6    2
    10     5    27    1
    11     6     7    1
    12     6    20    1
    13     7    21    2
    14     7    22    1
    15     8    24    2
    16     8    25    1
    17     9    10    1
    18     9    11    1
    19     9    25    1
    20     9    28    1
    21    10    29    1
    22    10    30    1
    23    10    31    1
    24    11    32    1
    25    11    33    1
    26    11    34    1
    27    12    13    2
    28    12    17    1
    29    12    20    1
    30    13    14    1
    31    13    35    1
    32    14    15    2
    33    14    36    1
    34    15    16    1
    35    15    18    1
    36    16    17    2
    37    16    37    1
    38    17    19    1
    39    22    23    1
    40    23    38    1
    41    23    39    1
    42    23    40    1
    43    25    41    1
