@<TRIPOS>MOLECULE
lig
  49   52 0 0 0
SMALL
NO_CHARGES


@<TRIPOS>ATOM
      1 C_00         38.2632   36.7144   17.0134 c4      1  lig      -0.284200
      2 C_01         34.5448   34.9770   21.1828 c5      1  lig       0.519200
      3 C_02         37.5969   36.1886   18.1373 c6      1  lig       0.229200
      4 C_03         34.0445   38.9756   23.7378 c7      1  lig       0.799700
      5 C_04         34.8025   37.8108   21.4407 c8      1  lig      -0.109100
      6 C_05         35.2536   37.1252   20.2344 c9      1  lig      -0.327700
      7 C_06         37.6232   36.7427   15.7594 cb      1  lig       0.264000
      8 C_07         36.3272   36.2163   15.6228 ci      1  lig      -0.255500
      9 C_08         35.6719   35.6684   16.7395 cj      1  lig      -0.194700
     10 C_09         34.3067   37.0366   22.5109 ck      1  lig       0.188700
     11 C_0a         34.8522   39.2088   21.6169 cm      1  lig       0.311300
     12 C_0b         35.1646   35.7815   20.1251 cn      1  lig       0.155800
     13 C_0c         36.2931   35.6640   18.0028 co      1  lig       0.173300
     14 C_0d         33.6690   34.8315   23.4618 cq      1  lig      -0.122400
     15 F_0e         38.1961   36.1968   19.3280 f0      1  lig      -0.155800
     16 O_0f         35.6498   35.0616   19.0536 o0      1  lig      -0.287100
     17 N_0g         34.4789   39.7925   22.7772 n0      1  lig      -0.735700
     18 O_0h         34.3290   33.7761   21.0235 o1      1  lig      -0.540400
     19 N_0i         34.2121   35.6181   22.3415 ng      1  lig      -0.041400
     20 N_0j         33.9306   37.6499   23.6560 nr      1  lig      -0.426700
     21 N_0k         33.6717   39.5652   24.9268 nw      1  lig      -0.596000
     22 H_0l         39.2585   37.1158   17.1165 h0      1  lig       0.192500
     23 H_0m         35.7026   37.7356   19.4667 h6      1  lig       0.176800
     24 H_0n         35.8375   36.2249   14.6602 h7      1  lig       0.185300
     25 H_0o         34.6916   35.2304   16.6228 h8      1  lig       0.193900
     26 H_0p         35.2183   39.8565   20.8356 h9      1  lig       0.110100
     27 H_0q         34.0543   35.1876   24.4176 hb      1  lig       0.082200
     28 H_0r         32.5822   34.9190   23.4834 hd      1  lig       0.082200
     29 H_0s         33.9197   33.7705   23.4230 he      1  lig       0.082200
     30 H_0t         33.7904   40.5685   24.9712 hf      1  lig       0.328000
     31 F_0u         38.2365   37.2743   14.7019 f1      1  lig      -0.176700
     32 C_0v         32.3864   39.3434   28.5029 cr      1  lig      -0.055900
     33 C_0w         32.8826   39.9949   27.2021 cs      1  lig      -0.067300
     34 C_0x         33.1625   38.9326   26.1269 ct      1  lig       0.125900
     35 C_0y         34.1671   37.8864   26.6357 cw      1  lig      -0.088200
     36 C_0z         33.6709   37.2349   27.9364 cA      1  lig      -0.079400
     37 C_10         33.3911   38.2971   29.0117 cB      1  lig       0.288900
     38 H_11         31.3999   38.8533   28.3203 hg      1  lig       0.053100
     39 H_12         32.2221   40.1260   29.2833 hh      1  lig       0.053100
     40 H_13         33.8171   40.5707   27.4078 hi      1  lig       0.031800
     41 H_14         32.1249   40.7262   26.8283 hj      1  lig       0.031800
     42 H_15         32.2074   38.4259   25.8477 hk      1  lig       0.035000
     43 H_16         34.3315   37.1039   25.8553 hl      1  lig       0.035000
     44 H_17         35.1537   38.3766   26.8183 hm      1  lig       0.035000
     45 H_18         32.7366   36.6591   27.7308 hq      1  lig       0.030600
     46 H_19         34.4286   36.5036   28.3103 hr      1  lig       0.030600
     47 H_1a         34.3461   38.8039   29.2910 ht      1  lig       0.000100
     48 O_1b         32.8955   37.6816   30.1795 o2      1  lig      -0.710900
     49 H_1c         33.5278   37.0299   30.4913 hu      1  lig       0.429800
@<TRIPOS>BOND
     1     1     3    2
     2     1     7    1
     3     1    22    1
     4     2    12    1
     5     2    18    2
     6     2    19    1
     7     3    13    1
     8     3    15    1
     9     4    17    1
    10     4    20    2
    11     4    21    1
    12     5     6    1
    13     5    10    2
    14     5    11    1
    15     6    12    2
    16     6    23    1
    17     7     8    2
    18     7    31    1
    19     8     9    1
    20     8    24    1
    21     9    13    2
    22     9    25    1
    23    10    19    1
    24    10    20    1
    25    11    17    2
    26    11    26    1
    27    12    16    1
    28    13    16    1
    29    14    19    1
    30    14    27    1
    31    14    28    1
    32    14    29    1
    33    21    30    1
    34    21    34    1
    35    32    33    1
    36    32    37    1
    37    32    38    1
    38    32    39    1
    39    33    34    1
    40    33    40    1
    41    33    41    1
    42    34    35    1
    43    34    42    1
    44    35    36    1
    45    35    43    1
    46    35    44    1
    47    36    37    1
    48    36    45    1
    49    36    46    1
    50    37    47    1
    51    37    48    1
    52    48    49    1
