@<TRIPOS>MOLECULE
lig
  47   49 0 0 0
SMALL
NO_CHARGES


@<TRIPOS>ATOM
      1 C_00         34.7622   38.7439   23.9476 c4      1  lig       0.757100
      2 C_01         35.2499   37.4721   21.6405 c5      1  lig      -0.069600
      3 C_02         35.5348   36.7418   20.4146 c6      1  lig      -0.345100
      4 C_03         35.0227   36.7418   22.8250 c7      1  lig       0.153000
      5 C_04         35.5320   35.3906   20.3880 c8      1  lig       0.159400
      6 C_05         33.7846   38.8689   26.3037 c9      1  lig       0.223700
      7 C_06         34.5670   39.3018   27.5511 cb      1  lig      -0.563700
      8 C_07         31.2859   36.7201   25.6423 ci      1  lig      -0.093700
      9 N_08         35.0422   35.3092   22.7534 n0      1  lig      -0.038500
     10 C_09         32.3083   39.3132   26.3897 cj      1  lig      -0.152700
     11 F_0a         37.8707   37.0007   14.6632 f0      1  lig      -0.172100
     12 C_0b         37.3947   36.4157   15.7863 ck      1  lig       0.245700
     13 C_0c         36.1114   35.8372   15.7886 cm      1  lig      -0.245200
     14 C_0d         35.6038   35.2536   16.9651 cn      1  lig      -0.207800
     15 C_0e         38.1736   36.4029   16.9581 co      1  lig      -0.260700
     16 C_0f         37.6618   35.8347   18.1396 cq      1  lig       0.204500
     17 F_0g         38.4005   35.8692   19.2738 f1      1  lig      -0.151300
     18 C_0h         36.3715   35.2572   18.1466 cr      1  lig       0.199900
     19 O_0i         35.8696   34.6526   19.2728 o0      1  lig      -0.293800
     20 C_0j         35.1741   34.6161   21.5814 cs      1  lig       0.532000
     21 O_0k         34.9911   33.3993   21.5227 o1      1  lig      -0.543600
     22 C_0l         35.2021   38.8782   21.7163 ct      1  lig       0.281000
     23 N_0m         34.9714   39.5160   22.8825 ng      1  lig      -0.699800
     24 N_0n         34.7792   37.4089   23.9779 nr      1  lig      -0.400100
     25 C_0o         34.8399   34.5573   24.0019 cw      1  lig      -0.082900
     26 N_0p         34.4255   39.4035   25.1103 nw      1  lig      -0.510800
     27 S_0q         31.1922   38.4913   25.1558 s0      1  lig       0.984000
     28 O_0r         29.8236   38.9620   25.4069 o2      1  lig      -0.592900
     29 O_0s         31.7563   38.6165   23.8041 o3      1  lig      -0.569100
     30 H_0t         35.7861   37.3321   19.5486 h0      1  lig       0.180300
     31 H_0u         33.8193   37.7810   26.2763 h6      1  lig       0.009300
     32 H_0v         35.6071   38.9786   27.4924 h7      1  lig       0.157900
     33 H_0w         34.5610   40.3853   27.6733 h8      1  lig       0.157900
     34 H_0x         34.1393   38.8652   28.4538 h9      1  lig       0.157900
     35 H_0y         30.5644   36.1528   25.0545 hb      1  lig       0.062700
     36 H_0z         32.2855   36.3331   25.4509 hd      1  lig       0.062700
     37 H_10         31.0443   36.6182   26.6999 he      1  lig       0.062700
     38 H_11         31.9029   39.0851   27.3757 hf      1  lig       0.108600
     39 H_12         32.2151   40.3909   26.2613 hg      1  lig       0.108600
     40 H_13         35.5110   35.8478   14.8913 hh      1  lig       0.186100
     41 H_14         34.6201   34.8071   16.9608 hi      1  lig       0.195000
     42 H_15         39.1521   36.8577   16.9609 hj      1  lig       0.189000
     43 H_16         35.3678   39.4918   20.8442 hk      1  lig       0.120000
     44 H_17         35.2765   33.5576   23.9769 hl      1  lig       0.067300
     45 H_18         35.3035   35.0572   24.8531 hm      1  lig       0.067300
     46 H_19         33.7742   34.4569   24.2090 hq      1  lig       0.067300
     47 H_1a         34.4408   40.4123   25.0493 hr      1  lig       0.292500
@<TRIPOS>BOND
     1     1    23    2
     2     1    24    1
     3     1    26    1
     4     2     3    1
     5     2     4    1
     6     2    22    2
     7     3     5    2
     8     3    30    1
     9     4     9    1
    10     4    24    2
    11     5    19    1
    12     5    20    1
    13     6     7    1
    14     6    10    1
    15     6    26    1
    16     6    31    1
    17     7    32    1
    18     7    33    1
    19     7    34    1
    20     8    27    1
    21     8    35    1
    22     8    36    1
    23     8    37    1
    24     9    20    1
    25     9    25    1
    26    10    27    1
    27    10    38    1
    28    10    39    1
    29    11    12    1
    30    12    13    2
    31    12    15    1
    32    13    14    1
    33    13    40    1
    34    14    18    2
    35    14    41    1
    36    15    16    2
    37    15    42    1
    38    16    17    1
    39    16    18    1
    40    18    19    1
    41    20    21    2
    42    22    23    1
    43    22    43    1
    44    25    44    1
    45    25    45    1
    46    25    46    1
    47    26    47    1
    48    27    28    2
    49    27    29    2
