@<TRIPOS>MOLECULE
lig
  46   49 0 0 0
SMALL
NO_CHARGES


@<TRIPOS>ATOM
      1 O_00         35.5410   34.9770   19.0020 o0      1  lig      -0.335100
      2 C_01         35.2381   37.0312   20.2150 c4      1  lig      -0.430200
      3 C_02         34.0764   36.9949   22.3869 c5      1  lig       0.160800
      4 C_03         34.7541   37.7332   21.3955 c6      1  lig      -0.045200
      5 C_04         34.9549   39.1098   21.6309 c7      1  lig       0.265700
      6 C_05         33.9384   38.9146   23.6636 c8      1  lig       0.852600
      7 C_06         35.0645   35.6968   20.0743 c9      1  lig       0.240400
      8 C_07         36.3624   35.5471   18.0621 cb      1  lig       0.208100
      9 C_08         33.0864   34.8683   23.1909 ci      1  lig      -0.111600
     10 C_09         33.5064   39.5490   27.3259 cj      1  lig      -0.106300
     11 C_0a         35.8921   35.7389   16.7478 ck      1  lig      -0.099600
     12 C_0b         38.0806   36.5759   16.0760 cm      1  lig      -0.083100
     13 C_0c         36.7488   36.2542   15.7562 cn      1  lig      -0.220600
     14 C_0d         38.5585   36.3724   17.3849 co      1  lig      -0.218500
     15 O_0e         34.2139   33.6973   20.9781 o1      1  lig      -0.542600
     16 C_0f         34.3461   34.9166   21.0904 cq      1  lig       0.504400
     17 C_0g         37.6988   35.8680   18.3785 cr      1  lig      -0.101800
     18 N_0h         34.5481   39.7018   22.7746 n0      1  lig      -0.724500
     19 N_0i         33.8517   35.5974   22.1657 ng      1  lig      -0.024200
     20 N_0j         33.6772   37.6157   23.5208 nr      1  lig      -0.440500
     21 N_0k         33.5515   39.5037   24.8493 nw      1  lig      -0.697300
     22 C_0l         33.0326   38.8504   26.0442 cs      1  lig       0.218600
     23 C_0m         31.4988   38.8068   26.0424 ct      1  lig      -0.178300
     24 C_0n         30.9892   38.1529   27.3378 cw      1  lig       0.154800
     25 O_0o         31.4825   38.8627   28.4691 o2      1  lig      -0.407200
     26 C_0p         32.9035   38.8579   28.5588 cA      1  lig       0.124200
     27 H_0q         35.7604   37.6200   19.4779 h0      1  lig       0.200600
     28 H_0r         35.4683   39.7296   20.9127 h6      1  lig       0.122500
     29 H_0s         32.7071   33.8985   22.8651 h7      1  lig       0.073800
     30 H_0t         33.7080   34.7028   24.0714 h8      1  lig       0.073800
     31 H_0u         32.2108   35.4409   23.4994 h9      1  lig       0.073800
     32 H_0v         34.5954   39.5419   27.3851 hb      1  lig       0.065800
     33 H_0w         33.1935   40.5928   27.3234 hd      1  lig       0.065800
     34 H_0x         34.8749   35.4820   16.4973 he      1  lig       0.140000
     35 H_0y         38.7330   36.9835   15.3193 hf      1  lig       0.130900
     36 H_0z         36.3830   36.4040   14.7507 hg      1  lig       0.158300
     37 H_10         39.5825   36.6103   17.6281 hh      1  lig       0.157600
     38 H_11         38.0635   35.7238   19.3847 hi      1  lig       0.141000
     39 H_12         33.7980   40.4789   24.9530 hj      1  lig       0.336700
     40 H_13         33.4090   37.8267   26.0679 hk      1  lig       0.012400
     41 H_14         31.1007   39.8178   25.9566 hl      1  lig       0.075100
     42 H_15         31.1334   38.2508   25.1782 hm      1  lig       0.075100
     43 H_16         29.9009   38.1662   27.3675 hq      1  lig       0.030900
     44 H_17         31.2938   37.1068   27.3914 hr      1  lig       0.030900
     45 H_18         33.2710   37.8346   28.6511 ht      1  lig       0.036000
     46 H_19         33.1993   39.3862   29.4654 hu      1  lig       0.036000
@<TRIPOS>BOND
     1     1     7    1
     2     1     8    1
     3     2     4    1
     4     2     7    2
     5     2    27    1
     6     3     4    2
     7     3    19    1
     8     3    20    1
     9     4     5    1
    10     5    18    2
    11     5    28    1
    12     6    18    1
    13     6    20    2
    14     6    21    1
    15     7    16    1
    16     8    11    2
    17     8    17    1
    18     9    19    1
    19     9    29    1
    20     9    30    1
    21     9    31    1
    22    10    22    1
    23    10    26    1
    24    10    32    1
    25    10    33    1
    26    11    13    1
    27    11    34    1
    28    12    13    2
    29    12    14    1
    30    12    35    1
    31    13    36    1
    32    14    17    2
    33    14    37    1
    34    15    16    2
    35    16    19    1
    36    17    38    1
    37    21    22    1
    38    21    39    1
    39    22    23    1
    40    22    40    1
    41    23    24    1
    42    23    41    1
    43    23    42    1
    44    24    25    1
    45    24    43    1
    46    24    44    1
    47    25    26    1
    48    26    45    1
    49    26    46    1
