@<TRIPOS>MOLECULE
lig
  46   49 0 0 0
SMALL
NO_CHARGES


@<TRIPOS>ATOM
      1 C_00         31.6235   38.9529   26.1544 c4      1  lig      -0.148400
      2 C_01         31.0952   38.3551   27.4684 c5      1  lig       0.132600
      3 C_02         33.0541   38.9788   28.6539 c6      1  lig       0.122800
      4 C_03         33.6809   39.6144   27.4031 c7      1  lig      -0.093800
      5 C_04         38.5466   36.6894   16.4814 c8      1  lig      -0.252800
      6 O_05         31.6350   39.0631   28.5784 o0      1  lig      -0.404400
      7 C_06         34.5448   34.9770   21.1828 c9      1  lig       0.521100
      8 C_07         37.8804   36.1637   17.6053 cb      1  lig       0.287500
      9 C_08         34.0445   38.9756   23.7378 ci      1  lig       0.843700
     10 C_09         33.1562   38.9294   26.1332 cj      1  lig       0.199200
     11 C_0a         34.8025   37.8108   21.4407 ck      1  lig      -0.076600
     12 C_0b         35.2536   37.1252   20.2344 cm      1  lig      -0.230400
     13 C_0c         37.9066   36.7177   15.2274 cn      1  lig      -0.132200
     14 C_0d         36.6106   36.1914   15.0908 co      1  lig      -0.240800
     15 C_0e         35.9553   35.6435   16.2076 cq      1  lig      -0.078800
     16 C_0f         34.3067   37.0366   22.5109 cr      1  lig       0.201900
     17 C_0g         34.8522   39.2088   21.6169 cs      1  lig       0.262900
     18 C_0h         35.1646   35.7815   20.1251 ct      1  lig      -0.047100
     19 C_0i         36.5766   35.6391   17.4708 cw      1  lig       0.135500
     20 C_0j         33.6690   34.8315   23.4618 cA      1  lig      -0.093500
     21 F_0k         38.4795   36.1719   18.7960 f0      1  lig      -0.195100
     22 S_0l         35.7698   34.8837   18.7887 s0      1  lig      -0.203000
     23 N_0m         34.4789   39.7925   22.7772 n0      1  lig      -0.713300
     24 O_0n         34.3290   33.7761   21.0235 o1      1  lig      -0.495600
     25 N_0o         34.2121   35.6181   22.3415 ng      1  lig      -0.033600
     26 N_0p         33.9306   37.6499   23.6560 nr      1  lig      -0.460900
     27 N_0q         33.6717   39.5652   24.9268 nw      1  lig      -0.661900
     28 H_0r         31.2200   38.3997   25.3053 h0      1  lig       0.067100
     29 H_0s         31.2771   39.9808   26.0536 h6      1  lig       0.067100
     30 H_0t         30.0102   38.4341   27.5066 h7      1  lig       0.037300
     31 H_0u         31.3432   37.2955   27.5444 h8      1  lig       0.037300
     32 H_0v         33.3652   37.9383   28.7608 h9      1  lig       0.036300
     33 H_0w         33.3890   39.5054   29.5480 hb      1  lig       0.036300
     34 H_0x         33.4274   40.6742   27.3922 hd      1  lig       0.062300
     35 H_0y         34.7681   39.5450   27.4512 he      1  lig       0.062300
     36 H_0z         39.5419   37.0909   16.5846 hf      1  lig       0.173500
     37 H_10         33.4882   37.8909   26.1541 hg      1  lig       0.017500
     38 H_11         35.7026   37.7356   19.4667 hh      1  lig       0.151300
     39 H_12         36.1209   36.2000   14.1283 hi      1  lig       0.171300
     40 H_13         34.9751   35.2055   16.0909 hj      1  lig       0.120700
     41 H_14         35.2183   39.8565   20.8356 hk      1  lig       0.120500
     42 H_15         34.0543   35.1876   24.4176 hl      1  lig       0.066900
     43 H_16         32.5822   34.9190   23.4834 hm      1  lig       0.066900
     44 H_17         33.9197   33.7705   23.4230 hq      1  lig       0.066900
     45 H_18         33.7904   40.5685   24.9712 hr      1  lig       0.325900
     46 H_19         38.4035   37.1485   14.3707 ht      1  lig       0.167600
@<TRIPOS>BOND
     1     1     2    1
     2     1    10    1
     3     1    28    1
     4     1    29    1
     5     2     6    1
     6     2    30    1
     7     2    31    1
     8     3     4    1
     9     3     6    1
    10     3    32    1
    11     3    33    1
    12     4    10    1
    13     4    34    1
    14     4    35    1
    15     5     8    2
    16     5    13    1
    17     5    36    1
    18     7    18    1
    19     7    24    2
    20     7    25    1
    21     8    19    1
    22     8    21    1
    23     9    23    1
    24     9    26    2
    25     9    27    1
    26    10    27    1
    27    10    37    1
    28    11    12    1
    29    11    16    2
    30    11    17    1
    31    12    18    2
    32    12    38    1
    33    13    14    2
    34    13    46    1
    35    14    15    1
    36    14    39    1
    37    15    19    2
    38    15    40    1
    39    16    25    1
    40    16    26    1
    41    17    23    2
    42    17    41    1
    43    18    22    1
    44    19    22    1
    45    20    25    1
    46    20    42    1
    47    20    43    1
    48    20    44    1
    49    27    45    1
