@<TRIPOS>MOLECULE
lig
  46   49 0 0 0
SMALL
NO_CHARGES


@<TRIPOS>ATOM
      1 C_00         31.6235   38.9529   26.1544 c4      1  lig      -0.186600
      2 C_01         31.0952   38.3551   27.4684 c5      1  lig       0.144300
      3 C_02         33.0541   38.9788   28.6539 c6      1  lig       0.131200
      4 C_03         33.6809   39.6144   27.4031 c7      1  lig      -0.105300
      5 C_04         38.2632   36.7144   17.0134 c8      1  lig      -0.253800
      6 O_05         31.6350   39.0631   28.5784 o0      1  lig      -0.406400
      7 C_06         34.5448   34.9770   21.1828 c9      1  lig       0.513400
      8 C_07         37.5969   36.1886   18.1373 cb      1  lig       0.272000
      9 C_08         34.0445   38.9756   23.7378 ci      1  lig       0.848800
     10 C_09         33.1562   38.9294   26.1332 cj      1  lig       0.215300
     11 C_0a         34.8025   37.8108   21.4407 ck      1  lig      -0.086000
     12 C_0b         35.2536   37.1252   20.2344 cm      1  lig      -0.357300
     13 C_0c         37.6232   36.7427   15.7594 cn      1  lig      -0.134300
     14 C_0d         36.3272   36.2163   15.6228 co      1  lig      -0.217500
     15 C_0e         35.6719   35.6684   16.7395 cq      1  lig      -0.154600
     16 C_0f         34.3067   37.0366   22.5109 cr      1  lig       0.174900
     17 C_0g         34.8522   39.2088   21.6169 cs      1  lig       0.283800
     18 C_0h         35.1646   35.7815   20.1251 ct      1  lig       0.186500
     19 C_0i         36.2931   35.6640   18.0028 cw      1  lig       0.190000
     20 C_0j         33.6690   34.8315   23.4618 cA      1  lig      -0.104500
     21 F_0k         38.1961   36.1968   19.3280 f0      1  lig      -0.182400
     22 O_0l         35.6498   35.0616   19.0536 o1      1  lig      -0.309700
     23 N_0m         34.4789   39.7925   22.7772 n0      1  lig      -0.725100
     24 O_0n         34.3290   33.7761   21.0235 o2      1  lig      -0.539300
     25 N_0o         34.2121   35.6181   22.3415 ng      1  lig      -0.028100
     26 N_0p         33.9306   37.6499   23.6560 nr      1  lig      -0.439600
     27 N_0q         33.6717   39.5652   24.9268 nw      1  lig      -0.687100
     28 H_0r         31.2200   38.3997   25.3053 h0      1  lig       0.077300
     29 H_0s         31.2771   39.9808   26.0536 h6      1  lig       0.077300
     30 H_0t         30.0102   38.4341   27.5066 h7      1  lig       0.035300
     31 H_0u         31.3432   37.2955   27.5444 h8      1  lig       0.035300
     32 H_0v         33.3652   37.9383   28.7608 h9      1  lig       0.034200
     33 H_0w         33.3890   39.5054   29.5480 hb      1  lig       0.034200
     34 H_0x         33.4274   40.6742   27.3922 hd      1  lig       0.066100
     35 H_0y         34.7681   39.5450   27.4512 he      1  lig       0.066100
     36 H_0z         39.2585   37.1158   17.1165 hf      1  lig       0.175500
     37 H_10         33.4882   37.8909   26.1541 hg      1  lig       0.012800
     38 H_11         35.7026   37.7356   19.4667 hh      1  lig       0.184600
     39 H_12         35.8375   36.2249   14.6602 hi      1  lig       0.167500
     40 H_13         34.6916   35.2304   16.6228 hj      1  lig       0.165400
     41 H_14         35.2183   39.8565   20.8356 hk      1  lig       0.116300
     42 H_15         34.0543   35.1876   24.4176 hl      1  lig       0.072000
     43 H_16         32.5822   34.9190   23.4834 hm      1  lig       0.072000
     44 H_17         33.9197   33.7705   23.4230 hq      1  lig       0.072000
     45 H_18         33.7904   40.5685   24.9712 hr      1  lig       0.333100
     46 H_19         38.1201   37.1734   14.9026 ht      1  lig       0.160400
@<TRIPOS>BOND
     1     1     2    1
     2     1    10    1
     3     1    28    1
     4     1    29    1
     5     2     6    1
     6     2    30    1
     7     2    31    1
     8     3     4    1
     9     3     6    1
    10     3    32    1
    11     3    33    1
    12     4    10    1
    13     4    34    1
    14     4    35    1
    15     5     8    2
    16     5    13    1
    17     5    36    1
    18     7    18    1
    19     7    24    2
    20     7    25    1
    21     8    19    1
    22     8    21    1
    23     9    23    1
    24     9    26    2
    25     9    27    1
    26    10    27    1
    27    10    37    1
    28    11    12    1
    29    11    16    2
    30    11    17    1
    31    12    18    2
    32    12    38    1
    33    13    14    2
    34    13    46    1
    35    14    15    1
    36    14    39    1
    37    15    19    2
    38    15    40    1
    39    16    25    1
    40    16    26    1
    41    17    23    2
    42    17    41    1
    43    18    22    1
    44    19    22    1
    45    20    25    1
    46    20    42    1
    47    20    43    1
    48    20    44    1
    49    27    45    1
