@<TRIPOS>MOLECULE
lig
  52   55 0 0 0
SMALL
NO_CHARGES


@<TRIPOS>ATOM
      1 C_00         38.2632   36.7144   17.0134 c4      1  lig      -0.304100
      2 C_01         34.5448   34.9770   21.1828 c5      1  lig       0.535200
      3 C_02         37.5969   36.1886   18.1373 c6      1  lig       0.245600
      4 C_03         34.0445   38.9756   23.7378 c7      1  lig       0.887800
      5 C_04         34.8025   37.8108   21.4407 c8      1  lig      -0.083800
      6 C_05         35.2536   37.1252   20.2344 c9      1  lig      -0.345900
      7 C_06         37.6232   36.7427   15.7594 cb      1  lig       0.270300
      8 C_07         36.3272   36.2163   15.6228 ci      1  lig      -0.248300
      9 C_08         35.6719   35.6684   16.7395 cj      1  lig      -0.207000
     10 C_09         34.3067   37.0366   22.5109 ck      1  lig       0.176300
     11 C_0a         34.8522   39.2088   21.6169 cm      1  lig       0.284300
     12 C_0b         35.1646   35.7815   20.1251 cn      1  lig       0.163600
     13 C_0c         36.2931   35.6640   18.0028 co      1  lig       0.177800
     14 C_0d         33.6690   34.8315   23.4618 cq      1  lig      -0.100200
     15 F_0e         38.1961   36.1968   19.3280 f0      1  lig      -0.160400
     16 O_0f         35.6498   35.0616   19.0536 o0      1  lig      -0.290700
     17 N_0g         34.4789   39.7925   22.7772 n0      1  lig      -0.738000
     18 O_0h         34.3290   33.7761   21.0235 o1      1  lig      -0.545700
     19 N_0i         34.2121   35.6181   22.3415 ng      1  lig      -0.045500
     20 N_0j         33.9306   37.6499   23.6560 nr      1  lig      -0.443700
     21 N_0k         33.6717   39.5652   24.9268 nw      1  lig      -0.734400
     22 H_0l         39.2585   37.1158   17.1165 h0      1  lig       0.198300
     23 H_0m         35.7026   37.7356   19.4667 h6      1  lig       0.179900
     24 H_0n         35.8375   36.2249   14.6602 h7      1  lig       0.183700
     25 H_0o         34.6916   35.2304   16.6228 h8      1  lig       0.196500
     26 H_0p         35.2183   39.8565   20.8356 h9      1  lig       0.118200
     27 H_0q         34.0543   35.1876   24.4176 hb      1  lig       0.074000
     28 H_0r         32.5822   34.9190   23.4834 hd      1  lig       0.074000
     29 H_0s         33.9197   33.7705   23.4230 he      1  lig       0.074000
     30 H_0t         33.7904   40.5685   24.9712 hf      1  lig       0.361300
     31 F_0u         38.2365   37.2743   14.7019 f1      1  lig      -0.177300
     32 C_0v         32.3864   39.3434   28.5029 cr      1  lig      -0.066500
     33 C_0w         32.8826   39.9949   27.2021 cs      1  lig      -0.052800
     34 C_0x         33.1625   38.9326   26.1269 ct      1  lig       0.173900
     35 C_0y         34.1671   37.8864   26.6357 cw      1  lig      -0.177200
     36 C_0z         33.6709   37.2349   27.9364 cA      1  lig      -0.023700
     37 N_10         33.3911   38.2971   29.0117 nA      1  lig      -0.171700
     38 H_11         31.3999   38.8533   28.3203 hg      1  lig       0.055200
     39 H_12         32.2221   40.1260   29.2833 hh      1  lig       0.055200
     40 H_13         33.8171   40.5707   27.4078 hi      1  lig       0.055500
     41 H_14         32.1249   40.7262   26.8283 hj      1  lig       0.055500
     42 H_15         32.2074   38.4259   25.8477 hk      1  lig       0.034000
     43 H_16         34.3315   37.1039   25.8553 hl      1  lig       0.083300
     44 H_17         35.1537   38.3766   26.8183 hm      1  lig       0.083300
     45 H_18         32.7366   36.6591   27.7308 hq      1  lig       0.070300
     46 H_19         34.4286   36.5036   28.3103 hr      1  lig       0.070300
     47 C_1a         34.0185   38.2191   30.2384 cB      1  lig       0.510400
     48 O_1b         34.7890   37.3195   30.4753 o2      1  lig      -0.572600
     49 C_1c         33.7272   39.2812   31.2889 cC      1  lig      -0.053600
     50 H_1d         32.9940   40.0202   30.8788 ht      1  lig       0.031800
     51 H_1e         33.2971   38.7958   32.2007 hu      1  lig       0.031800
     52 H_1f         34.6763   39.8083   31.5596 hv      1  lig       0.031800
@<TRIPOS>BOND
     1     1     3    2
     2     1     7    1
     3     1    22    1
     4     2    12    1
     5     2    18    2
     6     2    19    1
     7     3    13    1
     8     3    15    1
     9     4    17    1
    10     4    20    2
    11     4    21    1
    12     5     6    1
    13     5    10    2
    14     5    11    1
    15     6    12    2
    16     6    23    1
    17     7     8    2
    18     7    31    1
    19     8     9    1
    20     8    24    1
    21     9    13    2
    22     9    25    1
    23    10    19    1
    24    10    20    1
    25    11    17    2
    26    11    26    1
    27    12    16    1
    28    13    16    1
    29    14    19    1
    30    14    27    1
    31    14    28    1
    32    14    29    1
    33    21    30    1
    34    21    34    1
    35    32    33    1
    36    32    37    1
    37    32    38    1
    38    32    39    1
    39    33    34    1
    40    33    40    1
    41    33    41    1
    42    34    35    1
    43    34    42    1
    44    35    36    1
    45    35    43    1
    46    35    44    1
    47    36    37    1
    48    36    45    1
    49    36    46    1
    50    37    47    1
    51    47    48    2
    52    47    49    1
    53    49    50    1
    54    49    51    1
    55    49    52    1
