@<TRIPOS>MOLECULE
lig
  64   68 0 0 0
SMALL
NO_CHARGES


@<TRIPOS>ATOM
      1 C_00         38.2632   36.7144   17.0134 c4      1  lig      -0.296500
      2 C_01         34.5448   34.9770   21.1828 c5      1  lig       0.563000
      3 C_02         37.5969   36.1886   18.1373 c6      1  lig       0.241400
      4 C_03         34.0445   38.9756   23.7378 c7      1  lig       0.675600
      5 C_04         34.8025   37.8108   21.4407 c8      1  lig      -0.049100
      6 C_05         35.2536   37.1252   20.2344 c9      1  lig      -0.282200
      7 C_06         37.6232   36.7427   15.7594 cb      1  lig       0.268400
      8 C_07         36.3272   36.2163   15.6228 ci      1  lig      -0.239000
      9 C_08         35.6719   35.6684   16.7395 cj      1  lig      -0.209300
     10 C_09         34.3067   37.0366   22.5109 ck      1  lig      -0.004000
     11 C_0a         34.8522   39.2088   21.6169 cm      1  lig       0.245500
     12 C_0b         35.1646   35.7815   20.1251 cn      1  lig       0.120300
     13 C_0c         36.2931   35.6640   18.0028 co      1  lig       0.179200
     14 F_0d         38.1961   36.1968   19.3280 f0      1  lig      -0.167700
     15 O_0e         35.6498   35.0616   19.0536 o0      1  lig      -0.282900
     16 N_0f         34.4789   39.7925   22.7772 n0      1  lig      -0.659600
     17 O_0g         34.3290   33.7761   21.0235 o1      1  lig      -0.562400
     18 N_0h         34.2121   35.6181   22.3415 ng      1  lig      -0.050500
     19 N_0i         33.9306   37.6499   23.6560 nr      1  lig      -0.128200
     20 N_0j         33.6717   39.5652   24.9268 nw      1  lig      -0.727100
     21 H_0k         39.2585   37.1158   17.1165 h0      1  lig       0.200800
     22 H_0l         35.7026   37.7356   19.4667 h6      1  lig       0.164900
     23 H_0m         35.8375   36.2249   14.6602 h7      1  lig       0.185200
     24 H_0n         34.6916   35.2304   16.6228 h8      1  lig       0.198500
     25 H_0o         35.2183   39.8565   20.8356 h9      1  lig       0.126800
     26 H_0p         33.7904   40.5685   24.9712 hb      1  lig       0.368500
     27 F_0q         38.2365   37.2743   14.7019 f1      1  lig      -0.185100
     28 C_0r         32.3864   39.3434   28.5029 cq      1  lig       0.263200
     29 C_0s         32.8826   39.9949   27.2021 cr      1  lig      -0.291300
     30 C_0t         33.1625   38.9326   26.1269 cs      1  lig       0.232500
     31 C_0u         34.1671   37.8864   26.6357 ct      1  lig      -0.057600
     32 C_0v         33.6709   37.2349   27.9364 cw      1  lig       0.095700
     33 O_0w         33.3911   38.2971   29.0117 o2      1  lig      -0.429000
     34 H_0x         31.3999   38.8533   28.3203 hd      1  lig       0.001600
     35 H_0y         32.2221   40.1260   29.2833 he      1  lig       0.001600
     36 H_0z         33.8171   40.5707   27.4078 hf      1  lig       0.111400
     37 H_10         32.1249   40.7262   26.8283 hg      1  lig       0.111400
     38 H_11         32.2074   38.4259   25.8477 hh      1  lig       0.053500
     39 H_12         34.3315   37.1039   25.8553 hi      1  lig       0.041100
     40 H_13         35.1537   38.3766   26.8183 hj      1  lig       0.041100
     41 H_14         32.7366   36.6591   27.7308 hk      1  lig       0.034700
     42 H_15         34.4286   36.5036   28.3103 hl      1  lig       0.034700
     43 C_16         32.9681   35.0145   25.8880 cA      1  lig      -0.211400
     44 C_17         33.4304   35.8030   24.6521 cB      1  lig       0.054900
     45 C_18         33.7352   34.8576   23.4790 cC      1  lig      -0.049700
     46 C_19         34.7786   33.8023   23.8798 cD      1  lig       0.036100
     47 C_1a         34.3163   33.0139   25.1157 cE      1  lig      -0.097500
     48 H_1b         31.9966   34.5109   25.6656 hm      1  lig       0.143600
     49 H_1c         32.7852   35.7135   26.7403 hq      1  lig       0.143600
     50 H_1d         34.3472   36.3879   24.9060 hr      1  lig       0.002200
     51 H_1e         32.6455   36.5404   24.3542 ht      1  lig       0.002200
     52 H_1f         32.7949   34.3477   23.1587 hu      1  lig       0.134200
     53 H_1g         34.9615   33.1034   23.0275 hv      1  lig       0.000500
     54 H_1h         35.7500   34.3060   24.1023 hy      1  lig       0.000500
     55 H_1i         33.3996   32.4290   24.8619 hz      1  lig       0.093400
     56 H_1j         35.1011   32.2765   25.4136 hA      1  lig       0.093400
     57 N_1k         33.9817   33.9636   26.2255 nA      1  lig      -0.244700
     58 S_1l         34.6175   33.8688   27.5807 s0      1  lig       0.948700
     59 O_1m         35.5626   32.7276   27.5688 o3      1  lig      -0.545700
     60 O_1n         33.5397   33.8069   28.5956 o4      1  lig      -0.538200
     61 C_1o         35.4031   35.1261   27.8086 cF      1  lig      -0.318900
     62 H_1p         34.7082   36.0030   27.8214 hB      1  lig       0.137900
     63 H_1q         35.9376   35.0594   28.7893 hC      1  lig       0.137900
     64 H_1r         36.1496   35.2538   26.9849 hD      1  lig       0.137900
@<TRIPOS>BOND
     1     1     3    2
     2     1     7    1
     3     1    21    1
     4     2    12    1
     5     2    17    2
     6     2    18    1
     7     3    13    1
     8     3    14    1
     9     4    16    1
    10     4    19    2
    11     4    20    1
    12     5     6    1
    13     5    10    2
    14     5    11    1
    15     6    12    2
    16     6    22    1
    17     7     8    2
    18     7    27    1
    19     8     9    1
    20     8    23    1
    21     9    13    2
    22     9    24    1
    23    10    18    1
    24    10    19    1
    25    11    16    2
    26    11    25    1
    27    12    15    1
    28    13    15    1
    29    18    45    1
    30    20    26    1
    31    20    30    1
    32    28    29    1
    33    28    33    1
    34    28    34    1
    35    28    35    1
    36    29    30    1
    37    29    36    1
    38    29    37    1
    39    30    31    1
    40    30    38    1
    41    31    32    1
    42    31    39    1
    43    31    40    1
    44    32    33    1
    45    32    41    1
    46    32    42    1
    47    43    44    1
    48    43    48    1
    49    43    49    1
    50    43    57    1
    51    44    45    1
    52    44    50    1
    53    44    51    1
    54    45    46    1
    55    45    52    1
    56    46    47    1
    57    46    53    1
    58    46    54    1
    59    47    55    1
    60    47    56    1
    61    47    57    1
    62    57    58    1
    63    58    59    2
    64    58    60    2
    65    58    61    1
    66    61    62    1
    67    61    63    1
    68    61    64    1
