@<TRIPOS>MOLECULE
lig
  43   46 0 0 0
SMALL
NO_CHARGES


@<TRIPOS>ATOM
      1 C_00         38.2632   36.7144   17.0134 c4      1  lig      -0.297300
      2 C_01         34.5448   34.9770   21.1828 c5      1  lig       0.586400
      3 C_02         37.5969   36.1886   18.1373 c6      1  lig       0.240400
      4 C_03         34.0445   38.9756   23.7378 c7      1  lig       0.698000
      5 C_04         34.8025   37.8108   21.4407 c8      1  lig      -0.046000
      6 C_05         35.2536   37.1252   20.2344 c9      1  lig      -0.303400
      7 C_06         37.6232   36.7427   15.7594 cb      1  lig       0.270600
      8 C_07         36.3272   36.2163   15.6228 ci      1  lig      -0.247500
      9 C_08         35.6719   35.6684   16.7395 cj      1  lig      -0.212000
     10 C_09         34.3067   37.0366   22.5109 ck      1  lig       0.030400
     11 C_0a         34.8522   39.2088   21.6169 cm      1  lig       0.258200
     12 C_0b         35.1646   35.7815   20.1251 cn      1  lig       0.122900
     13 C_0c         36.2931   35.6640   18.0028 co      1  lig       0.186400
     14 C_0d         33.6690   34.8315   23.4618 cq      1  lig      -0.144000
     15 F_0e         38.1961   36.1968   19.3280 f0      1  lig      -0.160400
     16 O_0f         35.6498   35.0616   19.0536 o0      1  lig      -0.291500
     17 N_0g         34.4789   39.7925   22.7772 n0      1  lig      -0.687200
     18 O_0h         34.3290   33.7761   21.0235 o1      1  lig      -0.551300
     19 N_0i         34.2121   35.6181   22.3415 ng      1  lig      -0.064200
     20 N_0j         33.9306   37.6499   23.6560 nr      1  lig      -0.190200
     21 N_0k         33.6717   39.5652   24.9268 nw      1  lig      -0.602100
     22 H_0l         39.2585   37.1158   17.1165 h0      1  lig       0.196100
     23 H_0m         35.7026   37.7356   19.4667 h6      1  lig       0.167400
     24 H_0n         35.8375   36.2249   14.6602 h7      1  lig       0.183500
     25 H_0o         34.6916   35.2304   16.6228 h8      1  lig       0.198200
     26 H_0p         35.2183   39.8565   20.8356 h9      1  lig       0.118500
     27 H_0q         34.0543   35.1876   24.4176 hb      1  lig       0.085000
     28 H_0r         32.5822   34.9190   23.4834 hd      1  lig       0.085000
     29 H_0s         33.9197   33.7705   23.4230 he      1  lig       0.085000
     30 H_0t         33.7904   40.5685   24.9712 hf      1  lig       0.333500
     31 F_0u         38.2365   37.2743   14.7019 f1      1  lig      -0.178400
     32 O_0v         32.2505   36.7435   25.4774 o2      1  lig      -0.414700
     33 C_0w         31.2662   37.8710   25.1390 cr      1  lig       0.076000
     34 C_0x         31.6299   38.9841   26.1241 cs      1  lig       0.038800
     35 C_0y         33.1592   38.9286   26.1346 ct      1  lig       0.042200
     36 C_0z         33.4787   37.4276   26.1047 cw      1  lig       0.115800
     37 H_10         30.1978   37.5560   25.2177 hg      1  lig       0.048700
     38 H_11         31.4455   38.2289   24.0958 hh      1  lig       0.048700
     39 H_12         31.2328   39.9820   25.8186 hi      1  lig      -0.006000
     40 H_13         31.2328   38.7387   27.1390 hj      1  lig      -0.006000
     41 H_14         33.6039   39.4522   27.0150 hk      1  lig       0.120100
     42 H_15         33.6334   37.0527   27.1457 hl      1  lig       0.033200
     43 H_16         34.4151   37.2225   25.5320 hm      1  lig       0.033200
@<TRIPOS>BOND
     1     1     3    2
     2     1     7    1
     3     1    22    1
     4     2    12    1
     5     2    18    2
     6     2    19    1
     7     3    13    1
     8     3    15    1
     9     4    17    1
    10     4    20    2
    11     4    21    1
    12     5     6    1
    13     5    10    2
    14     5    11    1
    15     6    12    2
    16     6    23    1
    17     7     8    2
    18     7    31    1
    19     8     9    1
    20     8    24    1
    21     9    13    2
    22     9    25    1
    23    10    19    1
    24    10    20    1
    25    11    17    2
    26    11    26    1
    27    12    16    1
    28    13    16    1
    29    14    19    1
    30    14    27    1
    31    14    28    1
    32    14    29    1
    33    21    30    1
    34    21    35    1
    35    32    33    1
    36    32    36    1
    37    33    34    1
    38    33    37    1
    39    33    38    1
    40    34    35    1
    41    34    39    1
    42    34    40    1
    43    35    36    1
    44    35    41    1
    45    36    42    1
    46    36    43    1
