@<TRIPOS>MOLECULE
lig
  48   51 0 0 0
SMALL
NO_CHARGES


@<TRIPOS>ATOM
      1 C_00         38.2632   36.7144   17.0134 c4      1  lig      -0.256900
      2 C_01         34.5448   34.9770   21.1828 c5      1  lig       0.539000
      3 C_02         37.5969   36.1886   18.1373 c6      1  lig       0.200600
      4 C_03         34.0445   38.9756   23.7378 c7      1  lig       0.873900
      5 C_04         34.8025   37.8108   21.4407 c8      1  lig      -0.082200
      6 C_05         35.2536   37.1252   20.2344 c9      1  lig      -0.319100
      7 C_06         37.6232   36.7427   15.7594 cb      1  lig       0.239900
      8 C_07         36.3272   36.2163   15.6228 ci      1  lig      -0.235900
      9 C_08         35.6719   35.6684   16.7395 cj      1  lig      -0.219500
     10 C_09         34.3067   37.0366   22.5109 ck      1  lig       0.181900
     11 C_0a         34.8522   39.2088   21.6169 cm      1  lig       0.278600
     12 C_0b         35.1646   35.7815   20.1251 cn      1  lig       0.135800
     13 C_0c         36.2931   35.6640   18.0028 co      1  lig       0.209800
     14 C_0d         33.6690   34.8315   23.4618 cq      1  lig      -0.095600
     15 F_0e         38.1961   36.1968   19.3280 f0      1  lig      -0.151800
     16 O_0f         35.6498   35.0616   19.0536 o0      1  lig      -0.290900
     17 N_0g         34.4789   39.7925   22.7772 n0      1  lig      -0.731900
     18 O_0h         34.3290   33.7761   21.0235 o1      1  lig      -0.539400
     19 N_0i         34.2121   35.6181   22.3415 ng      1  lig      -0.036700
     20 N_0j         33.9306   37.6499   23.6560 nr      1  lig      -0.466900
     21 N_0k         33.6717   39.5652   24.9268 nw      1  lig      -0.712600
     22 H_0l         39.2585   37.1158   17.1165 h0      1  lig       0.188800
     23 H_0m         35.7026   37.7356   19.4667 h6      1  lig       0.172200
     24 H_0n         35.8375   36.2249   14.6602 h7      1  lig       0.184400
     25 H_0o         34.6916   35.2304   16.6228 h8      1  lig       0.198300
     26 H_0p         35.2183   39.8565   20.8356 h9      1  lig       0.124000
     27 H_0q         34.0543   35.1876   24.4176 hb      1  lig       0.072500
     28 H_0r         32.5822   34.9190   23.4834 hd      1  lig       0.072500
     29 H_0s         33.9197   33.7705   23.4230 he      1  lig       0.072500
     30 H_0t         33.7904   40.5685   24.9712 hf      1  lig       0.355900
     31 F_0u         38.2365   37.2743   14.7019 f1      1  lig      -0.171100
     32 C_0v         32.3005   38.7924   28.3926 cr      1  lig      -0.119600
     33 C_0w         32.8106   39.6388   27.2153 cs      1  lig      -0.101900
     34 C_0x         33.1506   38.7518   26.0069 ct      1  lig       0.206200
     35 C_0y         34.1728   37.6694   26.3893 cw      1  lig      -0.252900
     36 C_0z         33.6627   36.8230   27.5666 cA      1  lig      -0.095700
     37 H_10         31.3343   38.3084   28.1113 hg      1  lig       0.082400
     38 H_11         32.0921   39.4486   29.2726 hh      1  lig       0.082400
     39 H_12         33.7214   40.2029   27.5303 hi      1  lig       0.080700
     40 H_13         32.0411   40.3965   26.9283 hj      1  lig       0.080700
     41 H_14         32.2190   38.2662   25.6285 hk      1  lig       0.026100
     42 H_15         34.3813   37.0132   25.5094 hl      1  lig       0.116700
     43 H_16         35.1389   38.1535   26.6707 hm      1  lig       0.116700
     44 H_17         32.7520   36.2589   27.2517 hq      1  lig       0.082600
     45 H_18         34.4322   36.0653   27.8536 hr      1  lig       0.082600
     46 S_19         33.3316   37.7073   28.7960 s0      1  lig       0.984300
     47 O_1a         34.5778   38.3960   29.2065 o2      1  lig      -0.574100
     48 O_1b         32.7013   36.8428   29.8209 o3      1  lig      -0.587300
@<TRIPOS>BOND
     1     1     3    2
     2     1     7    1
     3     1    22    1
     4     2    12    1
     5     2    18    2
     6     2    19    1
     7     3    13    1
     8     3    15    1
     9     4    17    1
    10     4    20    2
    11     4    21    1
    12     5     6    1
    13     5    10    2
    14     5    11    1
    15     6    12    2
    16     6    23    1
    17     7     8    2
    18     7    31    1
    19     8     9    1
    20     8    24    1
    21     9    13    2
    22     9    25    1
    23    10    19    1
    24    10    20    1
    25    11    17    2
    26    11    26    1
    27    12    16    1
    28    13    16    1
    29    14    19    1
    30    14    27    1
    31    14    28    1
    32    14    29    1
    33    21    30    1
    34    21    34    1
    35    32    33    1
    36    32    37    1
    37    32    38    1
    38    32    46    1
    39    33    34    1
    40    33    39    1
    41    33    40    1
    42    34    35    1
    43    34    41    1
    44    35    36    1
    45    35    42    1
    46    35    43    1
    47    36    44    1
    48    36    45    1
    49    36    46    1
    50    46    47    2
    51    46    48    2
