@<TRIPOS>MOLECULE
lig
  58   61 0 0 0
SMALL
NO_CHARGES


@<TRIPOS>ATOM
      1 C_00         38.2632   36.7144   17.0134 c4      1  lig      -0.289300
      2 C_01         34.5448   34.9770   21.1828 c5      1  lig       0.522700
      3 C_02         37.5969   36.1886   18.1373 c6      1  lig       0.226000
      4 C_03         34.0445   38.9756   23.7378 c7      1  lig       0.750100
      5 C_04         34.8025   37.8108   21.4407 c8      1  lig      -0.062500
      6 C_05         35.2536   37.1252   20.2344 c9      1  lig      -0.334900
      7 C_06         37.6232   36.7427   15.7594 cb      1  lig       0.266600
      8 C_07         36.3272   36.2163   15.6228 ci      1  lig      -0.248700
      9 C_08         35.6719   35.6684   16.7395 cj      1  lig      -0.207500
     10 C_09         34.3067   37.0366   22.5109 ck      1  lig       0.110100
     11 C_0a         34.8522   39.2088   21.6169 cm      1  lig       0.279200
     12 C_0b         35.1646   35.7815   20.1251 cn      1  lig       0.169500
     13 C_0c         36.2931   35.6640   18.0028 co      1  lig       0.192600
     14 F_0d         38.1961   36.1968   19.3280 f0      1  lig      -0.157800
     15 O_0e         35.6498   35.0616   19.0536 o0      1  lig      -0.298200
     16 N_0f         34.4789   39.7925   22.7772 n0      1  lig      -0.698800
     17 O_0g         34.3290   33.7761   21.0235 o1      1  lig      -0.520300
     18 N_0h         34.2121   35.6181   22.3415 ng      1  lig      -0.074700
     19 N_0i         33.9306   37.6499   23.6560 nr      1  lig      -0.326600
     20 N_0j         33.6717   39.5652   24.9268 nw      1  lig      -0.635200
     21 H_0k         39.2585   37.1158   17.1165 h0      1  lig       0.194500
     22 H_0l         35.7026   37.7356   19.4667 h6      1  lig       0.173600
     23 H_0m         35.8375   36.2249   14.6602 h7      1  lig       0.184700
     24 H_0n         34.6916   35.2304   16.6228 h8      1  lig       0.196600
     25 H_0o         35.2183   39.8565   20.8356 h9      1  lig       0.114800
     26 H_0p         33.7904   40.5685   24.9712 hb      1  lig       0.332100
     27 F_0q         38.2365   37.2743   14.7019 f1      1  lig      -0.178100
     28 C_0r         32.3864   39.3434   28.5029 cq      1  lig       0.137400
     29 C_0s         32.8826   39.9949   27.2021 cr      1  lig      -0.188100
     30 C_0t         33.1625   38.9326   26.1269 cs      1  lig       0.121700
     31 C_0u         34.1671   37.8864   26.6357 ct      1  lig      -0.130600
     32 C_0v         33.6709   37.2349   27.9364 cw      1  lig       0.119800
     33 O_0w         33.3911   38.2971   29.0117 o2      1  lig      -0.392900
     34 H_0x         31.3999   38.8533   28.3203 hd      1  lig       0.036000
     35 H_0y         32.2221   40.1260   29.2833 he      1  lig       0.036000
     36 H_0z         33.8171   40.5707   27.4078 hf      1  lig       0.098100
     37 H_10         32.1249   40.7262   26.8283 hg      1  lig       0.098100
     38 H_11         32.2074   38.4259   25.8477 hh      1  lig       0.057300
     39 H_12         34.3315   37.1039   25.8553 hi      1  lig       0.071300
     40 H_13         35.1537   38.3766   26.8183 hj      1  lig       0.071300
     41 H_14         32.7366   36.6591   27.7308 hk      1  lig       0.038100
     42 H_15         34.4286   36.5036   28.3103 hl      1  lig       0.038100
     43 C_16         33.6777   34.8441   23.4439 cA      1  lig      -0.024800
     44 H_17         33.4618   35.5234   24.3064 hm      1  lig       0.061400
     45 H_18         32.7328   34.3390   23.1214 hq      1  lig       0.061400
     46 C_19         34.6979   33.7917   23.8682 cB      1  lig      -0.002100
     47 H_1a         34.9138   33.1124   23.0057 hr      1  lig       0.049200
     48 H_1b         35.6428   34.2968   24.1907 ht      1  lig       0.049200
     49 C_1c         34.1351   32.9773   25.0295 cC      1  lig      -0.064900
     50 H_1d         33.9194   33.6570   25.8917 hu      1  lig       0.015300
     51 H_1e         34.8830   32.2056   25.3410 hv      1  lig       0.015300
     52 S_1f         32.8683   32.3001   24.5976 s0      1  lig       1.054800
     53 O_1g         33.1864   31.4091   23.4572 o3      1  lig      -0.573200
     54 O_1h         31.8488   33.3438   24.3397 o4      1  lig      -0.580400
     55 C_1i         32.3899   31.4503   25.7374 cD      1  lig      -0.331600
     56 H_1j         32.1433   32.1036   26.6117 hy      1  lig       0.126100
     57 H_1k         31.4761   30.8860   25.4240 hz      1  lig       0.126100
     58 H_1l         33.1936   30.7277   26.0268 hA      1  lig       0.126100
@<TRIPOS>BOND
     1     1     3    2
     2     1     7    1
     3     1    21    1
     4     2    12    1
     5     2    17    2
     6     2    18    1
     7     3    13    1
     8     3    14    1
     9     4    16    1
    10     4    19    2
    11     4    20    1
    12     5     6    1
    13     5    10    2
    14     5    11    1
    15     6    12    2
    16     6    22    1
    17     7     8    2
    18     7    27    1
    19     8     9    1
    20     8    23    1
    21     9    13    2
    22     9    24    1
    23    10    18    1
    24    10    19    1
    25    11    16    2
    26    11    25    1
    27    12    15    1
    28    13    15    1
    29    18    43    1
    30    20    26    1
    31    20    30    1
    32    28    29    1
    33    28    33    1
    34    28    34    1
    35    28    35    1
    36    29    30    1
    37    29    36    1
    38    29    37    1
    39    30    31    1
    40    30    38    1
    41    31    32    1
    42    31    39    1
    43    31    40    1
    44    32    33    1
    45    32    41    1
    46    32    42    1
    47    43    44    1
    48    43    45    1
    49    43    46    1
    50    46    47    1
    51    46    48    1
    52    46    49    1
    53    49    50    1
    54    49    51    1
    55    49    52    1
    56    52    53    2
    57    52    54    2
    58    52    55    1
    59    55    56    1
    60    55    57    1
    61    55    58    1
