@<TRIPOS>MOLECULE
lig
  48   51 0 0 0
SMALL
NO_CHARGES


@<TRIPOS>ATOM
      1 C_00         31.6235   38.9529   26.1544 c4      1  lig      -0.160800
      2 C_01         31.0952   38.3551   27.4684 c5      1  lig       0.145300
      3 C_02         33.0541   38.9788   28.6539 c6      1  lig       0.134400
      4 C_03         33.6809   39.6144   27.4031 c7      1  lig      -0.096500
      5 C_04         38.3660   36.7077   16.8209 c8      1  lig      -0.203100
      6 O_05         31.6350   39.0631   28.5784 o0      1  lig      -0.406600
      7 C_06         34.5448   34.9770   21.1828 c9      1  lig       0.467600
      8 C_07         37.6997   36.1819   17.9448 cb      1  lig       0.235900
      9 C_08         34.0445   38.9756   23.7378 ci      1  lig       0.836400
     10 C_09         33.1562   38.9294   26.1332 cj      1  lig       0.200800
     11 C_0a         34.8025   37.8108   21.4407 ck      1  lig      -0.065600
     12 C_0b         35.2536   37.1252   20.2344 cm      1  lig      -0.339200
     13 C_0c         37.7260   36.7360   15.5669 cn      1  lig      -0.153200
     14 C_0d         36.4300   36.2096   15.4303 co      1  lig      -0.181700
     15 C_0e         35.7747   35.6617   16.5471 cq      1  lig      -0.181300
     16 C_0f         34.3067   37.0366   22.5109 cr      1  lig       0.175000
     17 C_0g         34.8522   39.2088   21.6169 cs      1  lig       0.295700
     18 C_0h         35.1646   35.7815   20.1251 ct      1  lig       0.011500
     19 C_0i         36.3960   35.6573   17.8103 cw      1  lig       0.005700
     20 C_0j         33.6690   34.8315   23.4618 cA      1  lig      -0.107000
     21 F_0k         38.2989   36.1901   19.1355 f0      1  lig      -0.192500
     22 C_0l         35.6924   34.9985   18.9596 cB      1  lig      -0.072400
     23 N_0m         34.4789   39.7925   22.7772 n0      1  lig      -0.721300
     24 O_0n         34.3290   33.7761   21.0235 o1      1  lig      -0.551400
     25 N_0o         34.2121   35.6181   22.3415 ng      1  lig      -0.011500
     26 N_0p         33.9306   37.6499   23.6560 nr      1  lig      -0.441000
     27 N_0q         33.6717   39.5652   24.9268 nw      1  lig      -0.672300
     28 H_0r         31.2200   38.3997   25.3053 h0      1  lig       0.069500
     29 H_0s         31.2771   39.9808   26.0536 h6      1  lig       0.069500
     30 H_0t         30.0102   38.4341   27.5066 h7      1  lig       0.032800
     31 H_0u         31.3432   37.2955   27.5444 h8      1  lig       0.032800
     32 H_0v         33.3652   37.9383   28.7608 h9      1  lig       0.032100
     33 H_0w         33.3890   39.5054   29.5480 hb      1  lig       0.032100
     34 H_0x         33.4274   40.6742   27.3922 hd      1  lig       0.063100
     35 H_0y         34.7681   39.5450   27.4512 he      1  lig       0.063100
     36 H_0z         39.3613   37.1091   16.9241 hf      1  lig       0.159400
     37 H_10         33.4882   37.8909   26.1541 hg      1  lig       0.016700
     38 H_11         35.7026   37.7356   19.4667 hh      1  lig       0.198100
     39 H_12         35.9403   36.2182   14.4678 hi      1  lig       0.152900
     40 H_13         34.7945   35.2237   16.4304 hj      1  lig       0.158600
     41 H_14         35.2183   39.8565   20.8356 hk      1  lig       0.105900
     42 H_15         34.0543   35.1876   24.4176 hl      1  lig       0.071200
     43 H_16         32.5822   34.9190   23.4834 hm      1  lig       0.071200
     44 H_17         33.9197   33.7705   23.4230 hq      1  lig       0.071200
     45 H_18         33.7904   40.5685   24.9712 hr      1  lig       0.329400
     46 H_19         38.2229   37.1667   14.7102 ht      1  lig       0.157700
     47 H_1a         36.4277   34.2745   19.3107 hu      1  lig       0.080900
     48 H_1b         34.8709   34.4738   18.4718 hv      1  lig       0.080900
@<TRIPOS>BOND
     1     1     2    1
     2     1    10    1
     3     1    28    1
     4     1    29    1
     5     2     6    1
     6     2    30    1
     7     2    31    1
     8     3     4    1
     9     3     6    1
    10     3    32    1
    11     3    33    1
    12     4    10    1
    13     4    34    1
    14     4    35    1
    15     5     8    2
    16     5    13    1
    17     5    36    1
    18     7    18    1
    19     7    24    2
    20     7    25    1
    21     8    19    1
    22     8    21    1
    23     9    23    1
    24     9    26    2
    25     9    27    1
    26    10    27    1
    27    10    37    1
    28    11    12    1
    29    11    16    2
    30    11    17    1
    31    12    18    2
    32    12    38    1
    33    13    14    2
    34    13    46    1
    35    14    15    1
    36    14    39    1
    37    15    19    2
    38    15    40    1
    39    16    25    1
    40    16    26    1
    41    17    23    2
    42    17    41    1
    43    18    22    1
    44    19    22    1
    45    20    25    1
    46    20    42    1
    47    20    43    1
    48    20    44    1
    49    22    47    1
    50    22    48    1
    51    27    45    1
