@<TRIPOS>MOLECULE
lig
  46   49 0 0 0
SMALL
NO_CHARGES


@<TRIPOS>ATOM
      1 C_00         31.6235   38.9529   26.1544 c4      1  lig      -0.192900
      2 C_01         31.0952   38.3551   27.4684 c5      1  lig       0.140600
      3 C_02         33.0541   38.9788   28.6539 c6      1  lig       0.133100
      4 C_03         33.6809   39.6144   27.4031 c7      1  lig      -0.106900
      5 C_04         38.2632   36.7144   17.0134 c8      1  lig      -0.279800
      6 O_05         31.6350   39.0631   28.5784 o0      1  lig      -0.404200
      7 C_06         34.5448   34.9770   21.1828 c9      1  lig       0.500300
      8 C_07         37.5969   36.1886   18.1373 cb      1  lig      -0.119900
      9 C_08         34.0445   38.9756   23.7378 ci      1  lig       0.853600
     10 C_09         33.1562   38.9294   26.1332 cj      1  lig       0.209200
     11 C_0a         34.8025   37.8108   21.4407 ck      1  lig      -0.072400
     12 C_0b         35.2536   37.1252   20.2344 cm      1  lig      -0.379300
     13 C_0c         37.6232   36.7427   15.7594 cn      1  lig       0.327900
     14 C_0d         36.3272   36.2163   15.6228 co      1  lig      -0.266900
     15 C_0e         35.6719   35.6684   16.7395 cq      1  lig      -0.137200
     16 C_0f         34.3067   37.0366   22.5109 cr      1  lig       0.157200
     17 C_0g         34.8522   39.2088   21.6169 cs      1  lig       0.275600
     18 C_0h         35.1646   35.7815   20.1251 ct      1  lig       0.204400
     19 C_0i         36.2931   35.6640   18.0028 cw      1  lig       0.176900
     20 C_0j         33.6690   34.8315   23.4618 cA      1  lig      -0.106700
     21 H_0k         38.0824   36.1953   19.1020 h0      1  lig       0.164300
     22 F_0l         38.2455   37.2821   14.6863 f0      1  lig      -0.204600
     23 O_0m         35.6498   35.0616   19.0536 o1      1  lig      -0.307300
     24 N_0n         34.4789   39.7925   22.7772 n0      1  lig      -0.723800
     25 O_0o         34.3290   33.7761   21.0235 o2      1  lig      -0.540700
     26 N_0p         34.2121   35.6181   22.3415 ng      1  lig      -0.019300
     27 N_0q         33.9306   37.6499   23.6560 nr      1  lig      -0.432100
     28 N_0r         33.6717   39.5652   24.9268 nw      1  lig      -0.690800
     29 H_0s         31.2200   38.3997   25.3053 h6      1  lig       0.080800
     30 H_0t         31.2771   39.9808   26.0536 h7      1  lig       0.080800
     31 H_0u         30.0102   38.4341   27.5066 h8      1  lig       0.036800
     32 H_0v         31.3432   37.2955   27.5444 h9      1  lig       0.036800
     33 H_0w         33.3652   37.9383   28.7608 hb      1  lig       0.033300
     34 H_0x         33.3890   39.5054   29.5480 hd      1  lig       0.033300
     35 H_0y         33.4274   40.6742   27.3922 he      1  lig       0.067900
     36 H_0z         34.7681   39.5450   27.4512 hf      1  lig       0.067900
     37 H_10         39.2585   37.1158   17.1165 hg      1  lig       0.181900
     38 H_11         33.4882   37.8909   26.1541 hh      1  lig       0.013500
     39 H_12         35.7026   37.7356   19.4667 hi      1  lig       0.188300
     40 H_13         35.8385   36.2249   14.6624 hj      1  lig       0.178900
     41 H_14         34.6956   35.2322   16.6233 hk      1  lig       0.169600
     42 H_15         35.2183   39.8565   20.8356 hl      1  lig       0.120000
     43 H_16         34.0543   35.1876   24.4176 hm      1  lig       0.072700
     44 H_17         32.5822   34.9190   23.4834 hq      1  lig       0.072700
     45 H_18         33.9197   33.7705   23.4230 hr      1  lig       0.072700
     46 H_19         33.7904   40.5685   24.9712 ht      1  lig       0.333800
@<TRIPOS>BOND
     1     1     2    1
     2     1    10    1
     3     1    29    1
     4     1    30    1
     5     2     6    1
     6     2    31    1
     7     2    32    1
     8     3     4    1
     9     3     6    1
    10     3    33    1
    11     3    34    1
    12     4    10    1
    13     4    35    1
    14     4    36    1
    15     5     8    2
    16     5    13    1
    17     5    37    1
    18     7    18    1
    19     7    25    2
    20     7    26    1
    21     8    19    1
    22     8    21    1
    23     9    24    1
    24     9    27    2
    25     9    28    1
    26    10    28    1
    27    10    38    1
    28    11    12    1
    29    11    16    2
    30    11    17    1
    31    12    18    2
    32    12    39    1
    33    13    14    2
    34    13    22    1
    35    14    15    1
    36    14    40    1
    37    15    19    2
    38    15    41    1
    39    16    26    1
    40    16    27    1
    41    17    24    2
    42    17    42    1
    43    18    23    1
    44    19    23    1
    45    20    26    1
    46    20    43    1
    47    20    44    1
    48    20    45    1
    49    28    46    1
