@<TRIPOS>MOLECULE
lig
  45   48 0 0 0
SMALL
NO_CHARGES


@<TRIPOS>ATOM
      1 C_00         31.6235   38.9529   26.1544 c4      1  lig      -0.162300
      2 C_01         31.0952   38.3551   27.4684 c5      1  lig       0.142100
      3 C_02         33.0541   38.9788   28.6539 c6      1  lig       0.120600
      4 C_03         33.6809   39.6144   27.4031 c7      1  lig      -0.102400
      5 O_04         31.6350   39.0631   28.5784 o0      1  lig      -0.404300
      6 C_05         34.5448   34.9770   21.1828 c8      1  lig       0.462700
      7 C_06         34.0445   38.9756   23.7378 c9      1  lig       0.832000
      8 C_07         33.1562   38.9294   26.1332 cb      1  lig       0.204700
      9 C_08         34.8025   37.8108   21.4407 ci      1  lig      -0.032000
     10 C_09         35.2536   37.1252   20.2344 cj      1  lig      -0.326800
     11 C_0a         34.3067   37.0366   22.5109 ck      1  lig       0.171100
     12 C_0b         34.8522   39.2088   21.6169 cm      1  lig       0.281500
     13 C_0c         33.6690   34.8315   23.4618 cn      1  lig      -0.068600
     14 N_0d         34.4789   39.7925   22.7772 n0      1  lig      -0.716000
     15 O_0e         34.3290   33.7761   21.0235 o1      1  lig      -0.528500
     16 N_0f         34.2121   35.6181   22.3415 ng      1  lig      -0.010500
     17 N_0g         33.9306   37.6499   23.6560 nr      1  lig      -0.440700
     18 N_0h         33.6717   39.5652   24.9268 nw      1  lig      -0.666600
     19 H_0i         31.2200   38.3997   25.3053 h0      1  lig       0.073900
     20 H_0j         31.2771   39.9808   26.0536 h6      1  lig       0.073900
     21 H_0k         30.0102   38.4341   27.5066 h7      1  lig       0.034800
     22 H_0l         31.3432   37.2955   27.5444 h8      1  lig       0.034800
     23 H_0m         33.3652   37.9383   28.7608 h9      1  lig       0.037500
     24 H_0n         33.3890   39.5054   29.5480 hb      1  lig       0.037500
     25 H_0o         33.4274   40.6742   27.3922 hd      1  lig       0.065200
     26 H_0p         34.7681   39.5450   27.4512 he      1  lig       0.065200
     27 H_0q         33.4882   37.8909   26.1541 hf      1  lig       0.012300
     28 H_0r         35.7026   37.7356   19.4667 hg      1  lig       0.194500
     29 H_0s         35.2183   39.8565   20.8356 hh      1  lig       0.114700
     30 H_0t         34.0543   35.1876   24.4176 hi      1  lig       0.060300
     31 H_0u         32.5822   34.9190   23.4834 hj      1  lig       0.060300
     32 H_0v         33.9197   33.7705   23.4230 hk      1  lig       0.060300
     33 H_0w         33.7904   40.5685   24.9712 hl      1  lig       0.330200
     34 C_0x         35.1939   35.7469   20.0596 co      1  lig      -0.037300
     35 C_0y         36.7445   33.8221   16.5753 cq      1  lig      -0.147800
     36 C_0z         36.8299   35.2183   16.7031 cr      1  lig      -0.108900
     37 C_10         36.3201   35.8511   17.8486 cs      1  lig       0.002500
     38 C_11         35.7249   35.0878   18.8664 ct      1  lig       0.162200
     39 C_12         35.6395   33.6916   18.7387 cw      1  lig      -0.204500
     40 C_13         36.1494   33.0588   17.5931 cA      1  lig      -0.140100
     41 H_14         37.1451   33.3249   15.6754 hm      1  lig       0.147800
     42 H_15         37.2975   35.8179   15.9034 hq      1  lig       0.133700
     43 Cl16         36.4252   37.5707   18.0060 a0      1  lig      -0.128000
     44 H_17         35.1720   33.0921   19.5382 hr      1  lig       0.160400
     45 H_18         36.0823   31.9620   17.4927 ht      1  lig       0.148600
@<TRIPOS>BOND
     1     1     2    1
     2     1     8    1
     3     1    19    1
     4     1    20    1
     5     2     5    1
     6     2    21    1
     7     2    22    1
     8     3     4    1
     9     3     5    1
    10     3    23    1
    11     3    24    1
    12     4     8    1
    13     4    25    1
    14     4    26    1
    15     6    15    2
    16     6    16    1
    17     6    34    1
    18     7    14    1
    19     7    17    2
    20     7    18    1
    21     8    18    1
    22     8    27    1
    23     9    10    1
    24     9    11    2
    25     9    12    1
    26    10    28    1
    27    10    34    2
    28    11    16    1
    29    11    17    1
    30    12    14    2
    31    12    29    1
    32    13    16    1
    33    13    30    1
    34    13    31    1
    35    13    32    1
    36    18    33    1
    37    34    38    1
    38    35    36    2
    39    35    40    1
    40    35    41    1
    41    36    37    1
    42    36    42    1
    43    37    38    2
    44    37    43    1
    45    38    39    1
    46    39    40    2
    47    39    44    1
    48    40    45    1
