@<TRIPOS>MOLECULE
lig
  35   37 0 0 0
SMALL
NO_CHARGES


@<TRIPOS>ATOM
      1 C_00         38.2632   36.7144   17.0134 c4      1  lig      -0.278100
      2 C_01         34.5448   34.9770   21.1828 c5      1  lig       0.518700
      3 C_02         37.5969   36.1886   18.1373 c6      1  lig       0.216600
      4 C_03         34.0445   38.9756   23.7378 c7      1  lig       0.841500
      5 C_04         33.1562   38.9294   26.1332 c8      1  lig      -0.092200
      6 C_05         34.8025   37.8108   21.4407 c9      1  lig      -0.137300
      7 C_06         35.2536   37.1252   20.2344 cb      1  lig      -0.366000
      8 C_07         37.6232   36.7427   15.7594 ci      1  lig       0.260200
      9 C_08         36.3272   36.2163   15.6228 cj      1  lig      -0.256800
     10 C_09         35.6719   35.6684   16.7395 ck      1  lig      -0.203700
     11 C_0a         34.3067   37.0366   22.5109 cm      1  lig       0.258200
     12 C_0b         34.8522   39.2088   21.6169 cn      1  lig       0.362800
     13 C_0c         35.1646   35.7815   20.1251 co      1  lig       0.189900
     14 C_0d         36.2931   35.6640   18.0028 cq      1  lig       0.196500
     15 C_0e         33.6690   34.8315   23.4618 cr      1  lig      -0.102700
     16 F_0f         38.1961   36.1968   19.3280 f0      1  lig      -0.154000
     17 O_0g         35.6498   35.0616   19.0536 o0      1  lig      -0.304000
     18 N_0h         34.4789   39.7925   22.7772 n0      1  lig      -0.787000
     19 O_0i         34.3290   33.7761   21.0235 o1      1  lig      -0.542500
     20 N_0j         34.2121   35.6181   22.3415 ng      1  lig      -0.063300
     21 N_0k         33.9306   37.6499   23.6560 nr      1  lig      -0.486300
     22 N_0l         33.6717   39.5652   24.9268 nw      1  lig      -0.530900
     23 H_0m         39.2585   37.1158   17.1165 h0      1  lig       0.191900
     24 H_0n         33.4882   37.8909   26.1541 h6      1  lig       0.073900
     25 H_0o         35.7026   37.7356   19.4667 h7      1  lig       0.185400
     26 H_0p         35.8375   36.2249   14.6602 h8      1  lig       0.187400
     27 H_0q         34.6916   35.2304   16.6228 h9      1  lig       0.195000
     28 H_0r         35.2183   39.8565   20.8356 hb      1  lig       0.101600
     29 H_0s         34.0543   35.1876   24.4176 hd      1  lig       0.073300
     30 H_0t         32.5822   34.9190   23.4834 he      1  lig       0.073300
     31 H_0u         33.9197   33.7705   23.4230 hf      1  lig       0.073300
     32 H_0v         33.7904   40.5685   24.9712 hg      1  lig       0.333300
     33 F_0w         38.2365   37.2743   14.7019 f1      1  lig      -0.175800
     34 H_0x         33.5333   39.4545   27.0108 hh      1  lig       0.073900
     35 H_0y         32.0669   38.9679   26.1277 hi      1  lig       0.073900
@<TRIPOS>BOND
     1     1     3    2
     2     1     8    1
     3     1    23    1
     4     2    13    1
     5     2    19    2
     6     2    20    1
     7     3    14    1
     8     3    16    1
     9     4    18    1
    10     4    21    2
    11     4    22    1
    12     5    22    1
    13     5    24    1
    14     5    34    1
    15     5    35    1
    16     6     7    1
    17     6    11    2
    18     6    12    1
    19     7    13    2
    20     7    25    1
    21     8     9    2
    22     8    33    1
    23     9    10    1
    24     9    26    1
    25    10    14    2
    26    10    27    1
    27    11    20    1
    28    11    21    1
    29    12    18    2
    30    12    28    1
    31    13    17    1
    32    14    17    1
    33    15    20    1
    34    15    29    1
    35    15    30    1
    36    15    31    1
    37    22    32    1
