@<TRIPOS>MOLECULE
lig
  50   53 0 0 0
SMALL
NO_CHARGES


@<TRIPOS>ATOM
      1 C_00          1.3901   29.1077    6.7935 c4      1  lig       0.424400
      2 C_01         -1.6911   31.9130    8.0794 c5      1  lig       0.226300
      3 C_02         -0.7437   26.3748    8.8319 c6      1  lig      -0.004700
      4 C_03         -1.3142   25.5567    9.9914 c7      1  lig       0.011700
      5 C_04         -1.1214   24.0589    9.6854 c8      1  lig      -0.016000
      6 C_05         -1.5824   23.1795   10.8502 c9      1  lig      -0.002000
      7 C_06         -0.8551   23.5463   12.1491 cb      1  lig       0.013700
      8 C_07         -1.0780   25.0277   12.4857 ci      1  lig      -0.023500
      9 C_08         -0.6321   25.9351   11.3273 cj      1  lig      -0.000400
     10 C_09          4.6903   25.7129    5.8380 ck      1  lig      -0.103400
     11 C_0a          4.6667   25.1395    7.1233 cm      1  lig      -0.108000
     12 C_0b          3.9496   25.7658    8.1576 cn      1  lig      -0.138100
     13 C_0c          3.2460   26.9556    7.8985 co      1  lig      -0.027300
     14 N_0d          0.6302   28.2313    7.4508 n0      1  lig      -0.347300
     15 C_0e         -0.4898   28.6252    8.0923 cq      1  lig       0.304200
     16 O_0f         -1.1796   27.7315    8.8832 o0      1  lig      -0.270900
     17 C_0g         -0.8660   29.9818    8.0000 cr      1  lig       0.205400
     18 N_0h         -1.9251   30.7129    8.5212 ng      1  lig      -0.581400
     19 N_0i         -0.5542   32.0464    7.3306 nr      1  lig      -0.474600
     20 C_0j         -0.0249   30.7863    7.2610 cs      1  lig       0.447500
     21 N_0k          1.1172   30.4049    6.6113 nw      1  lig      -0.647800
     22 N_0l          2.5827   28.6807    6.3360 nA      1  lig      -0.233000
     23 C_0m          3.2365   27.5251    6.6032 ct      1  lig       0.070300
     24 C_0n          3.9871   26.9068    5.5819 cw      1  lig      -0.219900
     25 H_0o         -2.3542   32.7337    8.2866 h0      1  lig       0.149600
     26 H_0p          0.3421   26.2813    8.8885 h6      1  lig       0.094700
     27 H_0q         -1.0533   25.9544    7.8735 h7      1  lig       0.094700
     28 H_0r         -2.3846   25.7536   10.0698 h8      1  lig       0.039800
     29 H_0s         -1.6745   23.7903    8.7850 h9      1  lig       0.005500
     30 H_0t         -0.0713   23.8531    9.4740 hb      1  lig       0.005500
     31 H_0u         -2.6489   23.3294   10.9949 hd      1  lig       0.001200
     32 H_0v         -1.4335   22.1247   10.6147 he      1  lig       0.001200
     33 H_0w         -1.2175   22.9242   12.9680 hf      1  lig       0.000500
     34 H_0x          0.2126   23.3446   12.0504 hg      1  lig       0.000500
     35 H_0y         -2.1337   25.2025   12.7004 hh      1  lig       0.006000
     36 H_0z         -0.5350   25.2900   13.3929 hi      1  lig       0.006000
     37 H_10          0.4518   25.8639   11.2223 hj      1  lig       0.014500
     38 H_11         -0.8463   26.9766   11.5731 hk      1  lig       0.014500
     39 H_12          5.2554   25.2427    5.0475 hl      1  lig       0.161500
     40 H_13          3.9402   25.3397    9.1502 hm      1  lig       0.166000
     41 H_14          2.7083   27.4238    8.7079 hq      1  lig       0.015700
     42 H_15         -0.1784   32.8770    6.8845 hr      1  lig       0.370000
     43 H_16          3.0167   29.2655    5.6333 ht      1  lig       0.262600
     44 H_17          4.0234   27.3389    4.5933 hu      1  lig       0.158800
     45 S_18          5.4311   23.8790    7.4001 s0      1  lig       1.076500
     46 O_19          5.8108   23.2938    6.1199 o1      1  lig      -0.535200
     47 O_1a          6.4234   24.1721    8.4274 o2      1  lig      -0.536100
     48 N_1b          4.3520   22.7432    8.1190 nB      1  lig      -0.881000
     49 H_1c          3.7946   22.1535    7.5176 hv      1  lig       0.400900
     50 H_1d          4.2201   22.7635    9.1201 hy      1  lig       0.400900
@<TRIPOS>BOND
     1     1    14    2
     2     1    21    1
     3     1    22    1
     4     2    18    2
     5     2    19    1
     6     2    25    1
     7     3     4    1
     8     3    16    1
     9     3    26    1
    10     3    27    1
    11     4     5    1
    12     4     9    1
    13     4    28    1
    14     5     6    1
    15     5    29    1
    16     5    30    1
    17     6     7    1
    18     6    31    1
    19     6    32    1
    20     7     8    1
    21     7    33    1
    22     7    34    1
    23     8     9    1
    24     8    35    1
    25     8    36    1
    26     9    37    1
    27     9    38    1
    28    10    11    2
    29    10    24    1
    30    10    39    1
    31    11    12    1
    32    11    45    1
    33    12    13    2
    34    12    40    1
    35    13    23    1
    36    13    41    1
    37    14    15    1
    38    15    16    1
    39    15    17    2
    40    17    18    1
    41    17    20    1
    42    19    20    1
    43    19    42    1
    44    20    21    2
    45    22    23    1
    46    22    43    1
    47    23    24    2
    48    24    44    1
    49    45    46    2
    50    45    47    2
    51    45    48    1
    52    48    49    1
    53    48    50    1
