@<TRIPOS>MOLECULE
lig
  57   60 0 0 0
SMALL
NO_CHARGES


@<TRIPOS>ATOM
      1 N_00          9.8324    7.0126   15.2173 n0      1  lig      -0.417672
      2 C_01          9.0423    7.4952   15.9118 c4      1  lig       0.222744
      3 C_02          8.0865    8.0790   16.7518 c5      1  lig       0.325698
      4 N_03          8.4212    9.1432   17.5107 ng      1  lig      -0.420866
      5 C_04          7.4727    9.6488   18.3236 c6      1  lig       0.026172
      6 C_05          6.1654    9.1192   18.4121 c7      1  lig       0.224628
      7 N_06          5.8364    8.0584   17.6361 nr      1  lig      -0.049012
      8 C_07          6.7803    7.5501   16.8074 c8      1  lig       0.173524
      9 O_08          6.4349    6.4811   16.0205 o0      1  lig      -0.321371
     10 C_09          5.2645    6.6341   15.2303 c9      1  lig       0.083507
     11 C_0a          4.7052    5.2386   14.9816 cb      1  lig      -0.015432
     12 C_0b          4.1616    4.6111   16.2779 ci      1  lig      -0.061050
     13 C_0c          2.6303    4.5854   16.3680 cj      1  lig       0.039745
     14 C_0d          1.9683    5.9478   16.5892 ck      1  lig      -0.065846
     15 O_0e          2.3843    6.4294   17.8620 o1      1  lig      -0.138164
     16 C_0f          1.4903    7.1840   18.5857 cm      1  lig       0.028875
     17 C_0g          0.1481    6.7638   18.7862 cn      1  lig      -0.145804
     18 C_0h         -0.7292    7.5079   19.6033 co      1  lig       0.154281
     19 N_0i         -2.0117    7.1452   19.8069 nw      1  lig      -0.591297
     20 C_0j         -2.2467    5.8204   20.3600 cq      1  lig       0.075796
     21 C_0k         -3.6680    5.7996   20.8940 cr      1  lig       0.023413
     22 C_0l         -4.6911    5.0990   20.2260 cs      1  lig      -0.158866
     23 C_0m         -6.0011    5.1648   20.7428 ct      1  lig      -0.163039
     24 C_0n         -6.3284    5.8641   21.8518 cw      1  lig      -0.130729
     25 C_0o         -5.3425    6.5363   22.4845 cA      1  lig      -0.196913
     26 C_0p         -4.0026    6.5341   22.0507 cB      1  lig      -0.064171
     27 C_0q         -0.2413    8.6519   20.2651 cC      1  lig      -0.038831
     28 Cl0r         -1.2882    9.5697   21.2920 a0      1  lig      -0.089140
     29 C_0s          1.0935    9.0500   20.0943 cD      1  lig      -0.096282
     30 C_0t          1.9840    8.3236   19.2664 cE      1  lig      -0.004416
     31 N_0u          3.3354    8.6674   19.0895 nA      1  lig      -0.125630
     32 C_0v          4.0840    9.6014   19.7164 cF      1  lig       0.662456
     33 O_0w          3.6600   10.3070   20.6221 o2      1  lig      -0.567556
     34 N_0x          5.3597    9.7789   19.3323 nB      1  lig      -0.574440
     35 H_0y          7.7513   10.4984   18.9294 h0      1  lig       0.140793
     36 H_0z          4.5529    7.3183   15.6924 h6      1  lig       0.048513
     37 H_10          5.5490    7.1114   14.2926 h7      1  lig       0.048513
     38 H_11          3.9364    5.2825   14.2102 h8      1  lig       0.043266
     39 H_12          5.5036    4.6186   14.5739 h9      1  lig       0.043266
     40 H_13          4.5495    3.5983   16.3865 hb      1  lig       0.037490
     41 H_14          4.5551    5.1633   17.1312 hd      1  lig       0.037490
     42 H_15          2.2180    4.1341   15.4655 he      1  lig       0.009155
     43 H_16          2.3490    3.9121   17.1778 hf      1  lig       0.009155
     44 H_17          2.3212    6.6332   15.8186 hg      1  lig       0.075083
     45 H_18          0.8893    5.9004   16.4416 hh      1  lig       0.075083
     46 H_19         -0.2298    5.8686   18.3148 hi      1  lig       0.163663
     47 H_1a         -2.6020    7.2806   18.9988 hj      1  lig       0.317096
     48 H_1b         -2.0869    5.0805   19.5744 hk      1  lig       0.068122
     49 H_1c         -1.5267    5.5975   21.1469 hl      1  lig       0.068122
     50 H_1d         -4.4690    4.5268   19.3371 hm      1  lig       0.123439
     51 H_1e         -6.8037    4.6384   20.2475 hq      1  lig       0.144998
     52 H_1f         -7.3492    5.8714   22.2044 hr      1  lig       0.140189
     53 H_1g         -5.5639    7.1124   23.3708 ht      1  lig       0.152682
     54 H_1h         -3.2384    7.0798   22.5851 hu      1  lig       0.108882
     55 H_1i          1.4482    9.9286   20.6125 hv      1  lig       0.163397
     56 H_1j          3.8095    8.2540   18.2992 hy      1  lig       0.019054
     57 H_1k          5.8017   10.5631   19.7902 hz      1  lig       0.358237
@<TRIPOS>BOND
     1     1     2    3
     2     2     3    1
     3     3     8    2
     4     3     4    1
     5     4     5    2
     6     5     6    1
     7     5    35    1
     8     6    34    1
     9     6     7    2
    10     7     8    1
    11     8     9    1
    12     9    10    1
    13    10    11    1
    14    10    36    1
    15    10    37    1
    16    11    12    1
    17    11    38    1
    18    11    39    1
    19    12    13    1
    20    12    40    1
    21    12    41    1
    22    13    14    1
    23    13    42    1
    24    13    43    1
    25    14    15    1
    26    14    44    1
    27    14    45    1
    28    15    16    1
    29    16    30    2
    30    16    17    1
    31    17    18    2
    32    17    46    1
    33    18    19    1
    34    18    27    1
    35    19    20    1
    36    19    47    1
    37    20    21    1
    38    20    48    1
    39    20    49    1
    40    21    26    1
    41    21    22    2
    42    22    23    1
    43    22    50    1
    44    23    24    2
    45    23    51    1
    46    24    25    1
    47    24    52    1
    48    25    26    2
    49    25    53    1
    50    26    54    1
    51    27    28    1
    52    27    29    2
    53    29    30    1
    54    29    55    1
    55    30    31    1
    56    31    32    1
    57    31    56    1
    58    32    33    2
    59    32    34    1
    60    34    57    1
