@<TRIPOS>MOLECULE
lig
  56   59 0 0 0
SMALL
NO_CHARGES


@<TRIPOS>ATOM
      1 N_00          9.8324    7.0126   15.2173 n0      1  lig      -0.412924
      2 C_01          9.0423    7.4952   15.9118 c4      1  lig       0.214706
      3 C_02          8.0865    8.0790   16.7518 c5      1  lig       0.304618
      4 N_03          8.4212    9.1432   17.5107 ng      1  lig      -0.406558
      5 C_04          7.4727    9.6488   18.3236 c6      1  lig       0.011633
      6 C_05          6.1654    9.1192   18.4121 c7      1  lig       0.255502
      7 N_06          5.8364    8.0584   17.6361 nr      1  lig      -0.131898
      8 C_07          6.7803    7.5501   16.8074 c8      1  lig       0.238198
      9 O_08          6.4349    6.4811   16.0205 o0      1  lig      -0.311882
     10 C_09          5.2645    6.6341   15.2303 c9      1  lig       0.029921
     11 C_0a          4.7052    5.2386   14.9816 cb      1  lig      -0.011393
     12 C_0b          4.1616    4.6111   16.2779 ci      1  lig      -0.066709
     13 C_0c          2.6303    4.5854   16.3680 cj      1  lig      -0.066538
     14 C_0d          1.9683    5.9478   16.5892 ck      1  lig      -0.087480
     15 O_0e          2.3843    6.4294   17.8620 o1      1  lig      -0.080314
     16 C_0f          1.4903    7.1840   18.5857 cm      1  lig      -0.007631
     17 C_0g          0.1481    6.7638   18.7862 cn      1  lig      -0.240335
     18 C_0h         -0.7292    7.5079   19.6033 co      1  lig       0.314370
     19 N_0i         -2.0117    7.1452   19.8069 nw      1  lig      -0.720812
     20 C_0j         -2.2467    5.8204   20.3600 cq      1  lig       0.037429
     21 C_0k         -3.6680    5.7996   20.8940 cr      1  lig      -0.064737
     22 C_0l         -4.0026    6.5341   22.0507 cs      1  lig       0.010664
     23 C_0m         -5.3425    6.5363   22.4845 ct      1  lig      -0.326962
     24 C_0n         -6.3284    5.8641   21.8518 cw      1  lig       0.281697
     25 N_0o         -6.0011    5.1648   20.7428 nA      1  lig      -0.562140
     26 C_0p         -4.6911    5.0990   20.2260 cA      1  lig       0.226819
     27 C_0q         -0.2413    8.6519   20.2651 cB      1  lig      -0.067570
     28 Cl0r         -1.2882    9.5697   21.2920 a0      1  lig      -0.084451
     29 C_0s          1.0935    9.0500   20.0943 cC      1  lig      -0.112334
     30 C_0t          1.9840    8.3236   19.2664 cD      1  lig       0.021085
     31 N_0u          3.3354    8.6674   19.0895 nB      1  lig      -0.107568
     32 C_0v          4.0840    9.6014   19.7164 cE      1  lig       0.623918
     33 O_0w          3.6600   10.3070   20.6221 o2      1  lig      -0.556826
     34 N_0x          5.3597    9.7789   19.3323 nC      1  lig      -0.553810
     35 H_0y          7.7513   10.4984   18.9294 h0      1  lig       0.140860
     36 H_0z          4.5529    7.3183   15.6924 h6      1  lig       0.060950
     37 H_10          5.5490    7.1114   14.2926 h7      1  lig       0.060950
     38 H_11          3.9364    5.2825   14.2102 h8      1  lig       0.049887
     39 H_12          5.5036    4.6186   14.5739 h9      1  lig       0.049887
     40 H_13          4.5495    3.5983   16.3865 hb      1  lig       0.040705
     41 H_14          4.5551    5.1633   17.1312 hd      1  lig       0.040705
     42 H_15          2.2180    4.1341   15.4655 he      1  lig       0.045362
     43 H_16          2.3490    3.9121   17.1778 hf      1  lig       0.045362
     44 H_17          2.3212    6.6332   15.8186 hg      1  lig       0.089191
     45 H_18          0.8893    5.9004   16.4416 hh      1  lig       0.089191
     46 H_19         -0.2298    5.8686   18.3148 hi      1  lig       0.183443
     47 H_1a         -2.5992    7.2810   18.9968 hj      1  lig       0.361310
     48 H_1b         -2.0902    5.0810   19.5734 hk      1  lig       0.079129
     49 H_1c         -1.5263    5.5934   21.1455 hl      1  lig       0.079129
     50 H_1d         -3.2494    7.0839   22.5958 hm      1  lig       0.138287
     51 H_1e         -5.6390    7.0910   23.3623 hq      1  lig       0.154740
     52 H_1f         -7.3396    5.8943   22.2298 hr      1  lig       0.075578
     53 H_1g         -4.4732    4.5257   19.3367 ht      1  lig       0.069557
     54 H_1h          1.4482    9.9286   20.6125 hu      1  lig       0.167560
     55 H_1i          3.8095    8.2540   18.2992 hv      1  lig       0.035164
     56 H_1j          5.8017   10.5631   19.7902 hy      1  lig       0.353365
@<TRIPOS>BOND
     1     1     2    3
     2     2     3    1
     3     3     8    2
     4     3     4    1
     5     4     5    2
     6     5     6    1
     7     5    35    1
     8     6    34    1
     9     6     7    2
    10     7     8    1
    11     8     9    1
    12     9    10    1
    13    10    11    1
    14    10    36    1
    15    10    37    1
    16    11    12    1
    17    11    38    1
    18    11    39    1
    19    12    13    1
    20    12    40    1
    21    12    41    1
    22    13    14    1
    23    13    42    1
    24    13    43    1
    25    14    15    1
    26    14    44    1
    27    14    45    1
    28    15    16    1
    29    16    30    2
    30    16    17    1
    31    17    18    2
    32    17    46    1
    33    18    19    1
    34    18    27    1
    35    19    20    1
    36    19    47    1
    37    20    21    1
    38    20    48    1
    39    20    49    1
    40    21    26    1
    41    21    22    2
    42    22    23    1
    43    22    50    1
    44    23    24    2
    45    23    51    1
    46    24    25    1
    47    24    52    1
    48    25    26    2
    49    26    53    1
    50    27    28    1
    51    27    29    2
    52    29    30    1
    53    29    54    1
    54    30    31    1
    55    31    32    1
    56    31    55    1
    57    32    33    2
    58    32    34    1
    59    34    56    1
