@<TRIPOS>MOLECULE
lig
  46   47 0 0 0
SMALL
NO_CHARGES


@<TRIPOS>ATOM
      1 C_00         24.0816   12.3916   30.2423 c4      1  lig      -0.089100
      2 C_01         23.3500   11.0657   30.4628 c5      1  lig       0.211600
      3 O_02         22.2121   11.3274   31.2794 o0      1  lig      -0.308600
      4 C_03         21.4127   10.2773   31.6976 c6      1  lig       0.394100
      5 N_04         21.7567    9.0266   31.2850 n0      1  lig      -0.392200
      6 C_05         20.9811    7.9971   31.6572 c7      1  lig       0.128800
      7 C_06         19.8706    8.1421   32.4769 c8      1  lig      -0.262000
      8 C_07         19.5217    9.4143   32.8937 c9      1  lig       0.230500
      9 N_08         18.3827    9.4958   33.6863 ng      1  lig      -0.797500
     10 C_09         20.2923   10.5202   32.5003 cb      1  lig      -0.058600
     11 C_0a         19.9657   11.8905   32.8774 ci      1  lig       0.255600
     12 N_0b         19.7135   12.9814   33.1712 nr      1  lig      -0.460400
     13 N_0c         21.4435    6.8153   31.1146 nw      1  lig      -0.037000
     14 C_0d         20.8639    5.6146   31.0308 cj      1  lig       0.441300
     15 O_0e         19.7396    5.3500   31.4512 o1      1  lig      -0.532700
     16 C_0f         21.6499    4.5466   30.2798 ck      1  lig       0.002200
     17 C_0g         23.0247    4.2587   30.8770 cm      1  lig      -0.068100
     18 C_0h         24.1218    5.0797   30.5737 cn      1  lig       0.046800
     19 O_0i         23.8940    6.1755   29.7600 o2      1  lig      -0.108400
     20 C_0j         24.9260    7.1419   29.5741 co      1  lig      -0.206600
     21 C_0k         25.3756    4.7488   31.1028 cq      1  lig      -0.023500
     22 C_0l         25.5283    3.6468   31.9432 cr      1  lig      -0.251200
     23 Br0m         27.2648    3.2511   32.6230 a0      1  lig      -0.051900
     24 C_0n         24.4329    2.8399   32.2701 cs      1  lig       0.426100
     25 C_0o         23.1819    3.1565   31.7231 ct      1  lig      -0.239000
     26 O_0p         24.6457    1.7801   33.1306 o3      1  lig      -0.340600
     27 C_0q         23.7084    0.7066   33.1601 cw      1  lig      -0.006900
     28 H_0r         24.9658   12.2529   29.6210 h0      1  lig       0.032800
     29 H_0s         23.4330   13.1123   29.7438 h6      1  lig       0.032800
     30 H_0t         24.3974   12.8270   31.1900 h7      1  lig       0.032800
     31 H_0u         23.0415   10.6380   29.5063 h8      1  lig       0.015500
     32 H_0v         24.0190   10.3518   30.9488 h9      1  lig       0.015500
     33 H_0w         19.2757    7.2952   32.7747 hb      1  lig       0.181100
     34 H_0x         17.9031    8.6482   33.9732 hd      1  lig       0.402300
     35 H_0y         17.9977   10.4016   33.9433 he      1  lig       0.402300
     36 H_0z         22.3516    6.9230   30.6906 hf      1  lig       0.045800
     37 H_10         21.0717    3.6287   30.2152 hg      1  lig       0.043100
     38 H_11         21.7630    4.9135   29.2646 hh      1  lig       0.043100
     39 H_12         24.5476    7.9548   28.9541 hi      1  lig       0.116400
     40 H_13         25.2471    7.5788   30.5210 hj      1  lig       0.116400
     41 H_14         25.7903    6.7169   29.0616 hk      1  lig       0.116400
     42 H_15         26.2494    5.3384   30.8749 hl      1  lig       0.117900
     43 H_16         22.3237    2.5419   31.9463 hm      1  lig       0.156900
     44 H_17         24.0776   -0.0691   33.8306 hq      1  lig       0.075400
     45 H_18         22.7306    1.0102   33.5310 hr      1  lig       0.075400
     46 H_19         23.5885    0.2529   32.1771 ht      1  lig       0.075400
@<TRIPOS>BOND
     1     1     2    1
     2     1    28    1
     3     1    29    1
     4     1    30    1
     5     2     3    1
     6     2    31    1
     7     2    32    1
     8     3     4    1
     9     4    10    2
    10     4     5    1
    11     5     6    2
    12     6     7    1
    13     6    13    1
    14     7     8    2
    15     7    33    1
    16     8     9    1
    17     8    10    1
    18     9    34    1
    19     9    35    1
    20    10    11    1
    21    11    12    3
    22    13    14    1
    23    13    36    1
    24    14    15    2
    25    14    16    1
    26    16    17    1
    27    16    37    1
    28    16    38    1
    29    17    25    1
    30    17    18    2
    31    18    19    1
    32    18    21    1
    33    19    20    1
    34    20    39    1
    35    20    40    1
    36    20    41    1
    37    21    22    2
    38    21    42    1
    39    22    23    1
    40    22    24    1
    41    24    25    2
    42    24    26    1
    43    25    43    1
    44    26    27    1
    45    27    44    1
    46    27    45    1
    47    27    46    1
