@<TRIPOS>MOLECULE
lig
  38   39 0 0 0
SMALL
NO_CHARGES


@<TRIPOS>ATOM
      1 C_00         24.0164   12.2539   30.2762 c4      1  lig      -0.080600
      2 C_01         23.2908   10.9314   30.5359 c5      1  lig       0.247200
      3 O_02         22.1419   11.2134   31.3311 o0      1  lig      -0.322800
      4 C_03         21.3323   10.1743   31.7566 c6      1  lig       0.415400
      5 N_04         21.6855    8.9139   31.3839 n0      1  lig      -0.433500
      6 C_05         20.8979    7.8953   31.7573 c7      1  lig       0.193900
      7 C_06         19.7602    8.0588   32.5320 c8      1  lig      -0.274100
      8 C_07         19.4059    9.3393   32.9154 c9      1  lig       0.247100
      9 N_08         18.2480    9.4343   33.6766 ng      1  lig      -0.815700
     10 C_09         20.1940   10.4357   32.5279 cb      1  lig      -0.075200
     11 C_0a         19.8720   11.8131   32.8833 ci      1  lig       0.266000
     12 N_0b         19.6248   12.9098   33.1606 nr      1  lig      -0.464400
     13 N_0c         21.3998    6.6892   31.3168 nw      1  lig      -0.186600
     14 C_0d         20.7829    5.5176   31.1304 cj      1  lig       0.522200
     15 O_0e         19.5708    5.3642   31.2684 o1      1  lig      -0.550000
     16 C_0f         21.6349    4.3090   30.7130 ck      1  lig      -0.106700
     17 C_0g         23.1282    4.5971   30.5483 cm      1  lig       0.010400
     18 C_0h         23.5814    5.4159   29.5068 cn      1  lig      -0.143900
     19 C_0i         24.9398    5.7006   29.3735 co      1  lig      -0.161300
     20 C_0j         25.8537    5.1673   30.2817 cq      1  lig      -0.095100
     21 C_0k         25.4095    4.3457   31.3184 cr      1  lig      -0.179500
     22 C_0l         24.0502    4.0609   31.4520 cs      1  lig      -0.109400
     23 H_0m         24.9074   12.0984   29.6688 h0      1  lig       0.028400
     24 H_0n         23.3684   12.9520   29.7458 h6      1  lig       0.028400
     25 H_0o         24.3206   12.7248   31.2106 h7      1  lig       0.028400
     26 H_0p         22.9961   10.4697   29.5909 h8      1  lig       0.006000
     27 H_0q         23.9583   10.2381   31.0529 h9      1  lig       0.006000
     28 H_0r         19.1613    7.2149   32.8307 hb      1  lig       0.184900
     29 H_0s         17.7801    8.5900   33.9930 hd      1  lig       0.407300
     30 H_0t         17.8746   10.3449   33.9353 he      1  lig       0.407300
     31 H_0u         22.3839    6.7405   31.1200 hf      1  lig       0.152300
     32 H_0v         21.4790    3.5192   31.4477 hg      1  lig       0.075100
     33 H_0w         21.2427    3.9300   29.7726 hh      1  lig       0.075100
     34 H_0x         22.8769    5.8379   28.8038 hi      1  lig       0.146600
     35 H_0y         25.2864    6.3344   28.5687 hj      1  lig       0.145300
     36 H_0z         26.9068    5.3922   30.1824 hk      1  lig       0.133400
     37 H_10         26.1194    3.9318   32.0207 hl      1  lig       0.147900
     38 H_11         23.7188    3.4238   32.2602 hm      1  lig       0.124200
@<TRIPOS>BOND
     1     1     2    1
     2     1    23    1
     3     1    24    1
     4     1    25    1
     5     2     3    1
     6     2    26    1
     7     2    27    1
     8     3     4    1
     9     4    10    2
    10     4     5    1
    11     5     6    2
    12     6     7    1
    13     6    13    1
    14     7     8    2
    15     7    28    1
    16     8     9    1
    17     8    10    1
    18     9    29    1
    19     9    30    1
    20    10    11    1
    21    11    12    3
    22    13    14    1
    23    13    31    1
    24    14    15    2
    25    14    16    1
    26    16    17    1
    27    16    32    1
    28    16    33    1
    29    17    22    1
    30    17    18    2
    31    18    19    1
    32    18    34    1
    33    19    20    2
    34    19    35    1
    35    20    21    1
    36    20    36    1
    37    21    22    2
    38    21    37    1
    39    22    38    1
