@<TRIPOS>MOLECULE
lig
  41   42 0 0 0
SMALL
NO_CHARGES


@<TRIPOS>ATOM
      1 C_00         24.0510   12.2016   30.2637 c4      1  lig      -0.084700
      2 C_01         23.3159   10.8864   30.5326 c5      1  lig       0.233800
      3 O_02         22.1655   11.1828   31.3207 o0      1  lig      -0.321700
      4 C_03         21.3477   10.1523   31.7514 c6      1  lig       0.422800
      5 N_04         21.6919    8.8874   31.3853 n0      1  lig      -0.433400
      6 C_05         20.8972    7.8767   31.7648 c7      1  lig       0.199700
      7 C_06         19.7610    8.0525   32.5388 c8      1  lig      -0.292900
      8 C_07         19.4157    9.3373   32.9151 c9      1  lig       0.262100
      9 N_08         18.2588    9.4438   33.6763 ng      1  lig      -0.818400
     10 C_09         20.2113   10.4260   32.5218 cb      1  lig      -0.079800
     11 C_0a         19.8989   11.8070   32.8723 ci      1  lig       0.262200
     12 N_0b         19.6587   12.9061   33.1464 nr      1  lig      -0.463400
     13 N_0c         21.3873    6.6638   31.3301 nw      1  lig      -0.174000
     14 C_0d         20.7487    5.5080   31.1215 cj      1  lig       0.518800
     15 O_0e         19.5319    5.3796   31.2433 o1      1  lig      -0.552700
     16 C_0f         21.5762    4.2864   30.6944 ck      1  lig      -0.108400
     17 C_0g         23.0915    4.4911   30.6827 cm      1  lig      -0.044000
     18 C_0h         23.6888    5.3698   29.7694 cn      1  lig      -0.175300
     19 C_0i         25.0671    5.5919   29.8016 co      1  lig       0.075500
     20 C_0j         25.7101    6.5802   28.8490 cq      1  lig      -0.189600
     21 C_0k         25.8566    4.9019   30.7231 cr      1  lig      -0.112600
     22 C_0l         25.2705    4.0092   31.6200 cs      1  lig      -0.227100
     23 C_0m         23.8912    3.8073   31.6026 ct      1  lig      -0.091000
     24 H_0n         24.9431   12.0347   29.6609 h0      1  lig       0.029900
     25 H_0o         23.4095   12.8989   29.7244 h6      1  lig       0.029900
     26 H_0p         24.3546   12.6790   31.1949 h7      1  lig       0.029900
     27 H_0q         23.0222   10.4181   29.5906 h8      1  lig       0.011100
     28 H_0r         23.9768   10.1935   31.0585 h9      1  lig       0.011100
     29 H_0s         19.1563    7.2141   32.8416 hb      1  lig       0.189400
     30 H_0t         17.7834    8.6037   33.9927 hd      1  lig       0.406900
     31 H_0u         17.8900   10.3575   33.9302 he      1  lig       0.406900
     32 H_0v         22.3762    6.6961   31.1563 hf      1  lig       0.140700
     33 H_0w         21.3185    3.4656   31.3622 hg      1  lig       0.081600
     34 H_0x         21.2476    3.9881   29.7032 hh      1  lig       0.081600
     35 H_0y         23.0789    5.8960   29.0477 hi      1  lig       0.155100
     36 H_0z         24.9881    7.3051   28.4726 hj      1  lig       0.067900
     37 H_10         26.5045    7.1383   29.3471 hk      1  lig       0.067900
     38 H_11         26.1450    6.0542   27.9989 hl      1  lig       0.067900
     39 H_12         26.9251    5.0640   30.7500 hm      1  lig       0.128700
     40 H_13         25.8856    3.4782   32.3328 hq      1  lig       0.162800
     41 H_14         23.4493    3.1153   32.3060 hr      1  lig       0.124800
@<TRIPOS>BOND
     1     1     2    1
     2     1    24    1
     3     1    25    1
     4     1    26    1
     5     2     3    1
     6     2    27    1
     7     2    28    1
     8     3     4    1
     9     4    10    2
    10     4     5    1
    11     5     6    2
    12     6     7    1
    13     6    13    1
    14     7     8    2
    15     7    29    1
    16     8     9    1
    17     8    10    1
    18     9    30    1
    19     9    31    1
    20    10    11    1
    21    11    12    3
    22    13    14    1
    23    13    32    1
    24    14    15    2
    25    14    16    1
    26    16    17    1
    27    16    33    1
    28    16    34    1
    29    17    23    1
    30    17    18    2
    31    18    19    1
    32    18    35    1
    33    19    20    1
    34    19    21    2
    35    20    36    1
    36    20    37    1
    37    20    38    1
    38    21    22    1
    39    21    39    1
    40    22    23    2
    41    22    40    1
    42    23    41    1
