@<TRIPOS>MOLECULE
lig
  41   42 0 0 0
SMALL
NO_CHARGES


@<TRIPOS>ATOM
      1 C_00         23.9605   12.3163   30.2947 c4      1  lig      -0.078600
      2 C_01         23.2559   10.9824   30.5536 c5      1  lig       0.223700
      3 O_02         22.1036   11.2446   31.3514 o0      1  lig      -0.328700
      4 C_03         21.3110   10.1914   31.7754 c6      1  lig       0.445100
      5 N_04         21.6913    8.9382   31.4088 n0      1  lig      -0.456200
      6 C_05         20.9227    7.9051   31.7793 c7      1  lig       0.166700
      7 C_06         19.7725    8.0448   32.5397 c8      1  lig      -0.266900
      8 C_07         19.3904    9.3202   32.9187 c9      1  lig       0.239500
      9 N_08         18.2233    9.3985   33.6687 ng      1  lig      -0.822800
     10 C_09         20.1628   10.4312   32.5383 cb      1  lig      -0.061600
     11 C_0a         19.8175   11.8036   32.8910 ci      1  lig       0.253500
     12 N_0b         19.5528   12.8968   33.1655 nr      1  lig      -0.460800
     13 N_0c         21.4664    6.7163   31.3474 nw      1  lig      -0.113700
     14 C_0d         20.9017    5.5224   31.1455 cj      1  lig       0.484900
     15 O_0e         19.7006    5.3105   31.3000 o1      1  lig      -0.541600
     16 C_0f         21.8103    4.3697   30.6812 ck      1  lig      -0.137300
     17 C_0g         23.2677    4.7656   30.3673 cm      1  lig       0.000200
     18 C_0h         24.3654    4.2247   31.0652 cn      1  lig       0.084300
     19 C_0i         24.1953    3.1869   32.1607 co      1  lig      -0.254800
     20 C_0j         25.6604    4.6622   30.7690 cq      1  lig      -0.174100
     21 C_0k         25.8785    5.6251   29.7872 cr      1  lig      -0.168200
     22 C_0l         24.8016    6.1467   29.0788 cs      1  lig      -0.147200
     23 C_0m         23.5087    5.7102   29.3592 ct      1  lig      -0.156200
     24 H_0n         24.2592   12.7902   31.2292 h0      1  lig       0.029100
     25 H_0o         24.8528   12.1755   29.6855 h6      1  lig       0.029100
     26 H_0p         23.3008   13.0052   29.7667 h7      1  lig       0.029100
     27 H_0q         22.9669   10.5177   29.6084 h8      1  lig       0.014500
     28 H_0r         23.9355   10.2989   31.0678 h9      1  lig       0.014500
     29 H_0s         19.1895    7.1877   32.8320 hb      1  lig       0.182300
     30 H_0t         17.8428   10.3048   33.9318 hd      1  lig       0.410500
     31 H_0u         17.7717    8.5486   33.9946 he      1  lig       0.410500
     32 H_0v         22.4445    6.8125   31.1370 hf      1  lig       0.136000
     33 H_0w         21.7436    3.5904   31.4370 hg      1  lig       0.086700
     34 H_0x         21.3668    3.9449   29.7835 hh      1  lig       0.086700
     35 H_0y         23.5756    2.3534   31.8283 hi      1  lig       0.088000
     36 H_0z         25.1503    2.7671   32.4785 hj      1  lig       0.088000
     37 H_10         23.7383    3.6561   33.0277 hk      1  lig       0.088000
     38 H_11         26.5075    4.2624   31.3084 hl      1  lig       0.147000
     39 H_12         26.8826    5.9668   29.5753 hm      1  lig       0.153200
     40 H_13         24.9756    6.8924   28.3166 hq      1  lig       0.144300
     41 H_14         22.6795    6.1271   28.8055 hr      1  lig       0.133300
@<TRIPOS>BOND
     1     1     2    1
     2     1    24    1
     3     1    25    1
     4     1    26    1
     5     2     3    1
     6     2    27    1
     7     2    28    1
     8     3     4    1
     9     4    10    2
    10     4     5    1
    11     5     6    2
    12     6     7    1
    13     6    13    1
    14     7     8    2
    15     7    29    1
    16     8     9    1
    17     8    10    1
    18     9    30    1
    19     9    31    1
    20    10    11    1
    21    11    12    3
    22    13    14    1
    23    13    32    1
    24    14    15    2
    25    14    16    1
    26    16    17    1
    27    16    33    1
    28    16    34    1
    29    17    23    1
    30    17    18    2
    31    18    19    1
    32    18    20    1
    33    19    35    1
    34    19    36    1
    35    19    37    1
    36    20    21    2
    37    20    38    1
    38    21    22    1
    39    21    39    1
    40    22    23    2
    41    22    40    1
    42    23    41    1
