@<TRIPOS>MOLECULE
lig
  38   39 0 0 0
SMALL
NO_CHARGES


@<TRIPOS>ATOM
      1 C_00         23.9635   12.4497   30.2903 c4      1  lig      -0.081900
      2 C_01         23.2574   11.1110   30.5189 c5      1  lig       0.239100
      3 O_02         22.1169   11.3548   31.3379 o0      1  lig      -0.318400
      4 C_03         21.3337   10.2929   31.7571 c6      1  lig       0.412300
      5 N_04         21.7030    9.0460   31.3553 n0      1  lig      -0.430300
      6 C_05         20.9397    8.0077   31.7246 c7      1  lig       0.191100
      7 C_06         19.8167    8.1342   32.5272 c8      1  lig      -0.271300
      8 C_07         19.4419    9.4023   32.9317 c9      1  lig       0.249300
      9 N_08         18.2880    9.4650   33.7017 ng      1  lig      -0.817700
     10 C_09         20.2000   10.5200   32.5451 cb      1  lig      -0.074600
     11 C_0a         19.8477   11.8875   32.9079 ci      1  lig       0.265500
     12 N_0b         19.5764   12.9770   33.1888 nr      1  lig      -0.462200
     13 N_0c         21.4299    6.8386   31.1872 nw      1  lig      -0.195400
     14 C_0d         20.8469    5.6461   31.0336 cj      1  lig       0.533200
     15 O_0e         19.7112    5.3701   31.4141 o1      1  lig      -0.549100
     16 C_0f         21.6405    4.6099   30.2450 ck      1  lig      -0.100200
     17 C_0g         23.0890    4.4692   30.6919 cm      1  lig      -0.013700
     18 C_0h         23.4115    3.6311   31.7625 cn      1  lig      -0.059900
     19 C_0i         24.7308    3.5231   32.1964 co      1  lig      -0.045600
     20 Cl0j         25.1131    2.5196   33.5455 a0      1  lig      -0.101900
     21 C_0k         25.7377    4.2389   31.5498 cq      1  lig      -0.024700
     22 C_0l         25.4251    5.0710   30.4731 cr      1  lig      -0.198700
     23 C_0m         24.1019    5.1880   30.0463 cs      1  lig      -0.122000
     24 H_0n         24.8475   12.3245   29.6656 h0      1  lig       0.029600
     25 H_0o         23.2997   13.1565   29.7922 h6      1  lig       0.029600
     26 H_0p         24.2763   12.8938   31.2348 h7      1  lig       0.029600
     27 H_0q         22.9540   10.6743   29.5648 h8      1  lig       0.007900
     28 H_0r         23.9412   10.4115   31.0051 h9      1  lig       0.007900
     29 H_0s         19.2327    7.2769   32.8172 hb      1  lig       0.184400
     30 H_0t         17.8294    8.6094   34.0005 hd      1  lig       0.408800
     31 H_0u         17.8922   10.3658   33.9622 he      1  lig       0.408800
     32 H_0v         22.3541    6.9752   30.8225 hf      1  lig       0.151200
     33 H_0w         21.1451    3.6416   30.2910 hg      1  lig       0.075600
     34 H_0x         21.5984    4.9434   29.2151 hh      1  lig       0.075600
     35 H_0y         22.6442    3.0568   32.2589 hi      1  lig       0.138900
     36 H_0z         26.7584    4.1509   31.8923 hj      1  lig       0.130000
     37 H_10         26.2071    5.6291   29.9754 hk      1  lig       0.159900
     38 H_11         23.8712    5.8362   29.2115 hl      1  lig       0.139300
@<TRIPOS>BOND
     1     1     2    1
     2     1    24    1
     3     1    25    1
     4     1    26    1
     5     2     3    1
     6     2    27    1
     7     2    28    1
     8     3     4    1
     9     4    10    2
    10     4     5    1
    11     5     6    2
    12     6     7    1
    13     6    13    1
    14     7     8    2
    15     7    29    1
    16     8     9    1
    17     8    10    1
    18     9    30    1
    19     9    31    1
    20    10    11    1
    21    11    12    3
    22    13    14    1
    23    13    32    1
    24    14    15    2
    25    14    16    1
    26    16    17    1
    27    16    33    1
    28    16    34    1
    29    17    23    1
    30    17    18    2
    31    18    19    1
    32    18    35    1
    33    19    20    1
    34    19    21    2
    35    21    22    1
    36    21    36    1
    37    22    23    2
    38    22    37    1
    39    23    38    1
