@<TRIPOS>MOLECULE
lig
  38   39 0 0 0
SMALL
NO_CHARGES


@<TRIPOS>ATOM
      1 C_00         24.0455   12.2310   30.2644 c4      1  lig      -0.083600
      2 C_01         23.3145   10.9118   30.5250 c5      1  lig       0.238600
      3 O_02         22.1664   11.2000   31.3187 o0      1  lig      -0.320000
      4 C_03         21.3513   10.1659   31.7455 c6      1  lig       0.415900
      5 N_04         21.6956    8.9024   31.3722 n0      1  lig      -0.430600
      6 C_05         20.9003    7.8904   31.7476 c7      1  lig       0.178400
      7 C_06         19.7671    8.0627   32.5273 c8      1  lig      -0.261900
      8 C_07         19.4228    9.3455   32.9112 c9      1  lig       0.241500
      9 N_08         18.2685    9.4486   33.6770 ng      1  lig      -0.811800
     10 C_09         20.2166   10.4359   32.5197 cb      1  lig      -0.075200
     11 C_0a         19.9034   11.8154   32.8755 ci      1  lig       0.266000
     12 N_0b         19.6627   12.9133   33.1535 nr      1  lig      -0.462000
     13 N_0c         21.3886    6.6799   31.3021 nw      1  lig      -0.174100
     14 C_0d         20.7526    5.5183   31.1147 cj      1  lig       0.510400
     15 O_0e         19.5388    5.3838   31.2541 o1      1  lig      -0.545700
     16 C_0f         21.5779    4.2945   30.6927 ck      1  lig      -0.079500
     17 C_0g         23.0905    4.5085   30.6435 cm      1  lig       0.015200
     18 C_0h         23.6658    5.3064   29.6460 cn      1  lig      -0.190000
     19 C_0i         25.0464    5.5098   29.6200 co      1  lig      -0.063900
     20 C_0j         25.8561    4.9156   30.5871 cq      1  lig       0.000100
     21 Cl0k         27.5599    5.1731   30.5675 a0      1  lig      -0.109600
     22 C_0l         25.2884    4.1164   31.5778 cr      1  lig      -0.076000
     23 C_0m         23.9087    3.9120   31.6076 cs      1  lig      -0.157500
     24 H_0n         24.9364   12.0713   29.6579 h0      1  lig       0.030300
     25 H_0o         23.4006   12.9310   29.7325 h6      1  lig       0.030300
     26 H_0p         24.3505   12.7019   31.1984 h7      1  lig       0.030300
     27 H_0q         23.0186   10.4502   29.5804 h8      1  lig       0.008800
     28 H_0r         23.9785   10.2165   31.0438 h9      1  lig       0.008800
     29 H_0s         19.1622    7.2240   32.8293 hb      1  lig       0.182200
     30 H_0t         17.7921    8.6077   33.9893 hd      1  lig       0.407400
     31 H_0u         17.8985   10.3613   33.9326 he      1  lig       0.407400
     32 H_0v         22.3727    6.7236   31.1098 hf      1  lig       0.147300
     33 H_0w         21.3384    3.4827   31.3789 hg      1  lig       0.071400
     34 H_0x         21.2281    3.9764   29.7145 hh      1  lig       0.071400
     35 H_0y         23.0434    5.7716   28.8932 hi      1  lig       0.164100
     36 H_0z         25.4959    6.1265   28.8545 hj      1  lig       0.136700
     37 H_10         25.9236    3.6580   32.3215 hk      1  lig       0.137000
     38 H_11         23.4814    3.2862   32.3792 hl      1  lig       0.141900
@<TRIPOS>BOND
     1     1     2    1
     2     1    24    1
     3     1    25    1
     4     1    26    1
     5     2     3    1
     6     2    27    1
     7     2    28    1
     8     3     4    1
     9     4    10    2
    10     4     5    1
    11     5     6    2
    12     6     7    1
    13     6    13    1
    14     7     8    2
    15     7    29    1
    16     8     9    1
    17     8    10    1
    18     9    30    1
    19     9    31    1
    20    10    11    1
    21    11    12    3
    22    13    14    1
    23    13    32    1
    24    14    15    2
    25    14    16    1
    26    16    17    1
    27    16    33    1
    28    16    34    1
    29    17    23    1
    30    17    18    2
    31    18    19    1
    32    18    35    1
    33    19    20    2
    34    19    36    1
    35    20    21    1
    36    20    22    1
    37    22    23    2
    38    22    37    1
    39    23    38    1
