@<TRIPOS>MOLECULE
lig
  38   39 0 0 0
SMALL
NO_CHARGES


@<TRIPOS>ATOM
      1 C_00         23.9836   12.4667   30.2867 c4      1  lig      -0.080100
      2 C_01         23.2737   11.1272   30.4972 c5      1  lig       0.248300
      3 O_02         22.1371   11.3623   31.3251 o0      1  lig      -0.330400
      4 C_03         21.3544   10.2954   31.7327 c6      1  lig       0.446800
      5 N_04         21.7200    9.0555   31.3102 n0      1  lig      -0.458400
      6 C_05         20.9619    8.0098   31.6663 c7      1  lig       0.203000
      7 C_06         19.8426    8.1238   32.4782 c8      1  lig      -0.273400
      8 C_07         19.4695    9.3867   32.9059 c9      1  lig       0.254400
      9 N_08         18.3212    9.4436   33.6872 ng      1  lig      -0.819200
     10 C_09         20.2252   10.5101   32.5303 cb      1  lig      -0.091400
     11 C_0a         19.8753   11.8722   32.9144 ci      1  lig       0.269700
     12 N_0b         19.6057   12.9576   33.2124 nr      1  lig      -0.464700
     13 N_0c         21.4575    6.8521   31.1054 nw      1  lig      -0.183800
     14 C_0d         20.9156    5.6355   31.0009 cj      1  lig       0.487300
     15 O_0e         19.8099    5.3226   31.4377 o1      1  lig      -0.527800
     16 C_0f         21.7255    4.6155   30.2083 ck      1  lig      -0.127900
     17 C_0g         23.0587    4.2602   30.8639 cm      1  lig       0.074400
     18 C_0h         23.1402    3.3559   31.9374 cn      1  lig      -0.012000
     19 Cl0i         21.7341    2.5734   32.5724 a0      1  lig      -0.092200
     20 C_0j         24.3761    3.0744   32.5186 co      1  lig      -0.083300
     21 C_0k         25.5378    3.6730   32.0318 cq      1  lig      -0.138400
     22 C_0l         25.4624    4.5663   30.9649 cr      1  lig      -0.163200
     23 C_0m         24.2283    4.8614   30.3873 cs      1  lig      -0.148800
     24 H_0n         24.8633   12.3484   29.6549 h0      1  lig       0.028400
     25 H_0o         23.3197   13.1844   29.8043 h6      1  lig       0.028400
     26 H_0p         24.3036   12.8938   31.2365 h7      1  lig       0.028400
     27 H_0q         22.9649   10.7062   29.5378 h8      1  lig       0.004900
     28 H_0r         23.9573   10.4175   30.9690 h9      1  lig       0.004900
     29 H_0s         19.2603    7.2626   32.7589 hb      1  lig       0.182800
     30 H_0t         17.9290   10.3428   33.9568 hd      1  lig       0.408700
     31 H_0u         17.8636    8.5866   33.9837 he      1  lig       0.408700
     32 H_0v         22.3528    7.0201   30.6785 hf      1  lig       0.165300
     33 H_0w         21.1373    3.7123   30.0604 hg      1  lig       0.086400
     34 H_0x         21.8841    5.0365   29.2197 hh      1  lig       0.086400
     35 H_0y         24.4287    2.3849   33.3488 hi      1  lig       0.133700
     36 H_0z         26.4943    3.4488   32.4838 hj      1  lig       0.151800
     37 H_10         26.3590    5.0424   30.5919 hk      1  lig       0.156500
     38 H_11         24.1838    5.5759   29.5770 hl      1  lig       0.135800
@<TRIPOS>BOND
     1     1     2    1
     2     1    24    1
     3     1    25    1
     4     1    26    1
     5     2     3    1
     6     2    27    1
     7     2    28    1
     8     3     4    1
     9     4    10    2
    10     4     5    1
    11     5     6    2
    12     6     7    1
    13     6    13    1
    14     7     8    2
    15     7    29    1
    16     8     9    1
    17     8    10    1
    18     9    30    1
    19     9    31    1
    20    10    11    1
    21    11    12    3
    22    13    14    1
    23    13    32    1
    24    14    15    2
    25    14    16    1
    26    16    17    1
    27    16    33    1
    28    16    34    1
    29    17    23    1
    30    17    18    2
    31    18    19    1
    32    18    20    1
    33    20    21    2
    34    20    35    1
    35    21    22    1
    36    21    36    1
    37    22    23    2
    38    22    37    1
    39    23    38    1
