@<TRIPOS>MOLECULE
lig
  42   43 0 0 0
SMALL
NO_CHARGES


@<TRIPOS>ATOM
      1 C_00         24.0387   12.2179   30.2669 c4      1  lig      -0.096000
      2 C_01         23.3044   10.9016   30.5332 c5      1  lig       0.238700
      3 O_02         22.1563   11.1951   31.3256 o0      1  lig      -0.335300
      4 C_03         21.3390   10.1633   31.7540 c6      1  lig       0.449800
      5 N_04         21.6823    8.8992   31.3837 n0      1  lig      -0.456500
      6 C_05         20.8867    7.8880   31.7599 c7      1  lig       0.183000
      7 C_06         19.7522    8.0618   32.5365 c8      1  lig      -0.253700
      8 C_07         19.4083    9.3453   32.9173 c9      1  lig       0.218400
      9 N_08         18.2524    9.4490   33.6800 ng      1  lig      -0.809700
     10 C_09         20.2035   10.4351   32.5260 cb      1  lig      -0.069000
     11 C_0a         19.8910   11.8152   32.8794 ci      1  lig       0.262900
     12 N_0b         19.6510   12.9138   33.1554 nr      1  lig      -0.463300
     13 N_0c         21.3748    6.6763   31.3202 nw      1  lig      -0.164500
     14 C_0d         20.7393    5.5159   31.1264 cj      1  lig       0.518200
     15 O_0e         19.5238    5.3827   31.2542 o1      1  lig      -0.559900
     16 C_0f         21.5737    4.2933   30.7142 ck      1  lig      -0.100400
     17 C_0g         23.0754    4.5499   30.5850 cm      1  lig      -0.016000
     18 C_0h         23.9617    4.0062   31.5176 cn      1  lig      -0.119000
     19 C_0i         25.3276    4.2685   31.4147 co      1  lig      -0.244300
     20 C_0j         25.8300    5.0672   30.3878 cq      1  lig       0.303000
     21 C_0k         24.9363    5.6034   29.4476 cr      1  lig      -0.158300
     22 C_0l         23.5696    5.3480   29.5477 cs      1  lig      -0.227300
     23 O_0m         27.1928    5.2764   30.3815 o2      1  lig      -0.337200
     24 C_0n         27.7622    6.0804   29.3514 ct      1  lig       0.008300
     25 H_0o         24.9291   12.0530   29.6611 h0      1  lig       0.033300
     26 H_0p         23.3956   12.9170   29.7318 h6      1  lig       0.033300
     27 H_0q         24.3449   12.6920   31.1989 h7      1  lig       0.033300
     28 H_0r         23.0079   10.4366   29.5904 h8      1  lig       0.012000
     29 H_0s         23.9667   10.2069   31.0548 h9      1  lig       0.012000
     30 H_0t         19.1471    7.2232   32.8380 hb      1  lig       0.184200
     31 H_0u         17.7774    8.6080   33.9939 hd      1  lig       0.406900
     32 H_0v         17.8829   10.3621   33.9354 he      1  lig       0.406900
     33 H_0w         22.3609    6.7127   31.1322 hf      1  lig       0.147000
     34 H_0x         21.3859    3.5003   31.4380 hg      1  lig       0.076000
     35 H_0y         21.1948    3.9318   29.7615 hh      1  lig       0.076000
     36 H_0z         23.5982    3.3827   32.3233 hi      1  lig       0.144000
     37 H_10         26.0138    3.8530   32.1380 hj      1  lig       0.151000
     38 H_11         25.2874    6.2225   28.6362 hk      1  lig       0.123200
     39 H_12         22.8915    5.7767   28.8218 hl      1  lig       0.179000
     40 H_13         28.8350    6.1759   29.5197 hm      1  lig       0.070000
     41 H_14         27.6209    5.6285   28.3678 hq      1  lig       0.070000
     42 H_15         27.3422    7.0878   29.3414 hr      1  lig       0.070000
@<TRIPOS>BOND
     1     1     2    1
     2     1    25    1
     3     1    26    1
     4     1    27    1
     5     2     3    1
     6     2    28    1
     7     2    29    1
     8     3     4    1
     9     4    10    2
    10     4     5    1
    11     5     6    2
    12     6     7    1
    13     6    13    1
    14     7     8    2
    15     7    30    1
    16     8     9    1
    17     8    10    1
    18     9    31    1
    19     9    32    1
    20    10    11    1
    21    11    12    3
    22    13    14    1
    23    13    33    1
    24    14    15    2
    25    14    16    1
    26    16    17    1
    27    16    34    1
    28    16    35    1
    29    17    22    1
    30    17    18    2
    31    18    19    1
    32    18    36    1
    33    19    20    2
    34    19    37    1
    35    20    21    1
    36    20    23    1
    37    21    22    2
    38    21    38    1
    39    22    39    1
    40    23    24    1
    41    24    40    1
    42    24    41    1
    43    24    42    1
