@<TRIPOS>MOLECULE
lig
  52   53 0 0 0
SMALL
NO_CHARGES


@<TRIPOS>ATOM
      1 C_00         24.0828   12.3868   30.2428 c4      1  lig      -0.093400
      2 C_01         23.3511   11.0608   30.4631 c5      1  lig       0.191700
      3 O_02         22.2130   11.3224   31.2794 o0      1  lig      -0.306700
      4 C_03         21.4137   10.2724   31.6978 c6      1  lig       0.427300
      5 N_04         21.7583    9.0214   31.2860 n0      1  lig      -0.435300
      6 C_05         20.9833    7.9917   31.6587 c7      1  lig       0.150000
      7 C_06         19.8720    8.1371   32.4777 c8      1  lig      -0.289600
      8 C_07         19.5223    9.4096   32.8934 c9      1  lig       0.269600
      9 N_08         18.3826    9.4917   33.6852 ng      1  lig      -0.830600
     10 C_09         20.2930   10.5154   32.4999 cb      1  lig      -0.082700
     11 C_0a         19.9661   11.8857   32.8768 ci      1  lig       0.260000
     12 N_0b         19.7139   12.9766   33.1706 nr      1  lig      -0.460700
     13 N_0c         21.4471    6.8094   31.1176 nw      1  lig      -0.035700
     14 C_0d         20.8648    5.6102   31.0302 cj      1  lig       0.441600
     15 O_0e         19.7384    5.3480   31.4462 o1      1  lig      -0.532100
     16 C_0f         21.6493    4.5406   30.2812 ck      1  lig      -0.002700
     17 C_0g         23.0099    4.2326   30.8981 cm      1  lig      -0.049500
     18 C_0h         24.1205    5.0418   30.6147 cn      1  lig       0.058300
     19 O_0i         23.9162    6.1432   29.8018 o2      1  lig      -0.111400
     20 C_0j         24.9744    7.0761   29.5922 co      1  lig      -0.225500
     21 C_0k         25.3630    4.6931   31.1582 cq      1  lig      -0.143700
     22 C_0l         25.4887    3.5794   31.9953 cr      1  lig      -0.006100
     23 S_0m         27.1113    3.1594   32.6460 s0      1  lig       0.949600
     24 O_0n         28.0639    4.2094   32.2494 o3      1  lig      -0.565200
     25 O_0o         26.9781    2.8102   34.0695 o4      1  lig      -0.539800
     26 C_0p         27.5657    1.6315   31.7313 cs      1  lig      -0.255000
     27 C_0q         24.3792    2.7781   32.2959 ct      1  lig       0.063100
     28 C_0r         23.1415    3.1205   31.7349 cw      1  lig      -0.130800
     29 O_0s         24.5589    1.6919   33.1307 o5      1  lig      -0.293800
     30 C_0t         23.5930    0.6441   33.1472 cA      1  lig      -0.083200
     31 H_0u         24.9667   12.2481   29.6211 h0      1  lig       0.035100
     32 H_0v         23.4340   13.1077   29.7447 h6      1  lig       0.035100
     33 H_0w         24.3990   12.8219   31.1906 h7      1  lig       0.035100
     34 H_0x         23.0429   10.6331   29.5065 h8      1  lig       0.025300
     35 H_0y         24.0201   10.3469   30.9492 h9      1  lig       0.025300
     36 H_0z         19.2773    7.2904   32.7761 hb      1  lig       0.185500
     37 H_10         17.9032    8.6443   33.9735 hd      1  lig       0.412600
     38 H_11         17.9980   10.3977   33.9421 he      1  lig       0.412600
     39 H_12         22.3581    6.9165   30.6994 hf      1  lig       0.064100
     40 H_13         21.0631    3.6295   30.2004 hg      1  lig       0.044000
     41 H_14         21.7824    4.9132   29.2703 hh      1  lig       0.044000
     42 H_15         24.6154    7.8880   28.9593 hi      1  lig       0.124100
     43 H_16         25.3134    7.5216   30.5284 hj      1  lig       0.124100
     44 H_17         25.8233    6.6177   29.0824 hk      1  lig       0.124100
     45 H_18         26.2396    5.2813   30.9372 hl      1  lig       0.152100
     46 H_19         27.5804    1.8413   30.6637 hm      1  lig       0.112800
     47 H_1a         28.5481    1.2980   32.0584 hq      1  lig       0.112800
     48 H_1b         26.8259    0.8607   31.9422 hr      1  lig       0.112800
     49 H_1c         22.2718    2.5149   31.9348 ht      1  lig       0.169100
     50 H_1d         23.4748    0.1971   32.1618 hu      1  lig       0.103900
     51 H_1e         22.6191    0.9694   33.5092 hv      1  lig       0.103900
     52 H_1f         23.9356   -0.1431   33.8184 hy      1  lig       0.103900
@<TRIPOS>BOND
     1     1     2    1
     2     1    31    1
     3     1    32    1
     4     1    33    1
     5     2     3    1
     6     2    34    1
     7     2    35    1
     8     3     4    1
     9     4    10    2
    10     4     5    1
    11     5     6    2
    12     6     7    1
    13     6    13    1
    14     7     8    2
    15     7    36    1
    16     8     9    1
    17     8    10    1
    18     9    37    1
    19     9    38    1
    20    10    11    1
    21    11    12    3
    22    13    14    1
    23    13    39    1
    24    14    15    2
    25    14    16    1
    26    16    17    1
    27    16    40    1
    28    16    41    1
    29    17    28    1
    30    17    18    2
    31    18    19    1
    32    18    21    1
    33    19    20    1
    34    20    42    1
    35    20    43    1
    36    20    44    1
    37    21    22    2
    38    21    45    1
    39    22    23    1
    40    22    27    1
    41    23    24    2
    42    23    25    2
    43    23    26    1
    44    26    46    1
    45    26    47    1
    46    26    48    1
    47    27    28    2
    48    27    29    1
    49    28    49    1
    50    29    30    1
    51    30    50    1
    52    30    51    1
    53    30    52    1
