@<TRIPOS>MOLECULE
lig
  38   39 0 0 0
SMALL
NO_CHARGES


@<TRIPOS>ATOM
      1 C_00         23.9795   12.4589   30.2880 c4      1  lig      -0.083700
      2 C_01         23.2747   11.1170   30.5005 c5      1  lig       0.248800
      3 O_02         22.1368   11.3490   31.3273 o0      1  lig      -0.335700
      4 C_03         21.3560   10.2807   31.7346 c6      1  lig       0.463400
      5 N_04         21.7259    9.0407   31.3145 n0      1  lig      -0.465300
      6 C_05         20.9683    7.9946   31.6702 c7      1  lig       0.188000
      7 C_06         19.8451    8.1072   32.4773 c8      1  lig      -0.258900
      8 C_07         19.4687    9.3702   32.9032 c9      1  lig       0.244600
      9 N_08         18.3178    9.4274   33.6812 ng      1  lig      -0.808400
     10 C_09         20.2247   10.4942   32.5296 cb      1  lig      -0.095300
     11 C_0a         19.8737   11.8560   32.9146 ci      1  lig       0.267300
     12 N_0b         19.6036   12.9410   33.2135 nr      1  lig      -0.461500
     13 N_0c         21.4728    6.8392   31.1131 nw      1  lig      -0.183700
     14 C_0d         20.9423    5.6177   31.0115 cj      1  lig       0.473700
     15 O_0e         19.8423    5.2962   31.4542 o1      1  lig      -0.512700
     16 C_0f         21.7561    4.6026   30.2160 ck      1  lig      -0.179800
     17 C_0g         23.0783    4.2283   30.8823 cm      1  lig       0.112100
     18 C_0h         23.1375    3.3173   31.9518 cn      1  lig      -0.113000
     19 Br0i         21.5740    2.4705   32.6412 a0      1  lig      -0.030400
     20 C_0j         24.3634    3.0176   32.5456 co      1  lig      -0.071800
     21 C_0k         25.5365    3.6080   32.0767 cq      1  lig      -0.012800
     22 C_0l         25.4840    4.5100   31.0173 cr      1  lig      -0.148000
     23 Br0m         27.0825    5.3242   30.3860 a1      1  lig      -0.049900
     24 C_0n         24.2614    4.8204   30.4251 cs      1  lig      -0.020800
     25 H_0o         24.8608   12.3428   29.6579 h0      1  lig       0.030100
     26 H_0p         23.3134   13.1725   29.8027 h6      1  lig       0.030100
     27 H_0q         24.2960   12.8898   31.2373 h7      1  lig       0.030100
     28 H_0r         22.9681   10.6932   29.5416 h8      1  lig       0.004900
     29 H_0s         23.9606   10.4107   30.9741 h9      1  lig       0.004900
     30 H_0t         19.2630    7.2454   32.7565 hb      1  lig       0.177500
     31 H_0u         17.8620    8.5711   33.9829 hd      1  lig       0.408200
     32 H_0v         17.9267   10.3270   33.9514 he      1  lig       0.408200
     33 H_0w         22.3648    7.0193   30.6863 hf      1  lig       0.177400
     34 H_0x         21.1607    3.7065   30.0526 hg      1  lig       0.100200
     35 H_0y         21.9267    5.0299   29.2321 hh      1  lig       0.100200
     36 H_0z         24.3992    2.3224   33.3727 hi      1  lig       0.128600
     37 H_10         26.4874    3.3749   32.5341 hj      1  lig       0.129500
     38 H_11         24.2431    5.5409   29.6199 hk      1  lig       0.103900
@<TRIPOS>BOND
     1     1     2    1
     2     1    25    1
     3     1    26    1
     4     1    27    1
     5     2     3    1
     6     2    28    1
     7     2    29    1
     8     3     4    1
     9     4    10    2
    10     4     5    1
    11     5     6    2
    12     6     7    1
    13     6    13    1
    14     7     8    2
    15     7    30    1
    16     8     9    1
    17     8    10    1
    18     9    31    1
    19     9    32    1
    20    10    11    1
    21    11    12    3
    22    13    14    1
    23    13    33    1
    24    14    15    2
    25    14    16    1
    26    16    17    1
    27    16    34    1
    28    16    35    1
    29    17    24    1
    30    17    18    2
    31    18    19    1
    32    18    20    1
    33    20    21    2
    34    20    36    1
    35    21    22    1
    36    21    37    1
    37    22    23    1
    38    22    24    2
    39    24    38    1
