@<TRIPOS>MOLECULE
lig
  53   54 0 0 0
SMALL
NO_CHARGES


@<TRIPOS>ATOM
      1 C_00         24.0679   12.3974   30.2299 c4      1  lig      -0.080800
      2 C_01         23.3159   11.0783   30.4227 c5      1  lig       0.208700
      3 O_02         22.2074   11.3318   31.2810 o0      1  lig      -0.304400
      4 C_03         21.4078   10.2815   31.6977 c6      1  lig       0.366400
      5 N_04         21.7477    9.0318   31.2791 n0      1  lig      -0.372700
      6 C_05         20.9736    8.0017   31.6536 c7      1  lig       0.108200
      7 C_06         19.8665    8.1461   32.4779 c8      1  lig      -0.239300
      8 C_07         19.5200    9.4177   32.8981 c9      1  lig       0.223100
      9 N_08         18.3829    9.4988   33.6931 ng      1  lig      -0.828900
     10 C_09         20.2909   10.5235   32.5051 cb      1  lig      -0.039900
     11 C_0a         19.9670   11.8935   32.8853 ci      1  lig       0.259000
     12 N_0b         19.7174   12.9843   33.1812 nr      1  lig      -0.466300
     13 N_0c         21.4331    6.8194   31.1098 nw      1  lig      -0.035200
     14 C_0d         20.8527    5.6189   31.0281 cj      1  lig       0.435900
     15 O_0e         19.7272    5.3573   31.4476 o1      1  lig      -0.534500
     16 C_0f         21.6390    4.5479   30.2799 ck      1  lig       0.011600
     17 C_0g         23.0290    4.2861   30.8549 cm      1  lig      -0.096200
     18 C_0h         24.1071    5.1197   30.5266 cn      1  lig       0.036000
     19 O_0i         23.8494    6.2028   29.7043 o2      1  lig      -0.117800
     20 C_0j         24.8536    7.1989   29.5184 co      1  lig      -0.176900
     21 C_0k         25.3718    4.8226   31.0461 cq      1  lig      -0.103200
     22 C_0l         25.5645    3.7381   31.9139 cr      1  lig      -0.033400
     23 C_0m         24.4775    2.9179   32.2550 cs      1  lig       0.106500
     24 C_0n         23.2164    3.1999   31.7130 ct      1  lig      -0.146200
     25 O_0o         24.7079    1.8722   33.1347 o3      1  lig      -0.211800
     26 C_0p         23.7954    0.7759   33.1653 cw      1  lig      -0.100700
     27 N_0q         26.8105    3.4129   32.4986 nA      1  lig      -0.275400
     28 C_0r         28.0304    3.9580   32.3626 cA      1  lig       0.594100
     29 O_0s         28.3090    4.8809   31.6038 o4      1  lig      -0.565200
     30 C_0t         29.1268    3.3864   33.2444 cB      1  lig      -0.205000
     31 H_0u         24.9126   12.2714   29.5531 h0      1  lig       0.030300
     32 H_0v         23.4120   13.1593   29.8075 h6      1  lig       0.030300
     33 H_0w         24.4475   12.7735   31.1798 h7      1  lig       0.030300
     34 H_0x         22.9679   10.6939   29.4613 h8      1  lig       0.015300
     35 H_0y         23.9861   10.3339   30.8590 h9      1  lig       0.015300
     36 H_0z         19.2723    7.2992   32.7769 hb      1  lig       0.173600
     37 H_10         17.9982   10.4045   33.9508 hd      1  lig       0.411800
     38 H_11         17.9022    8.6511   33.9777 he      1  lig       0.411800
     39 H_12         22.3411    6.9232   30.6839 hf      1  lig       0.059700
     40 H_13         21.0716    3.6218   30.2389 hg      1  lig       0.037800
     41 H_14         21.7296    4.9031   29.2587 hh      1  lig       0.037800
     42 H_15         25.1766    7.6318   30.4670 hi      1  lig       0.107500
     43 H_16         25.7221    6.8023   28.9901 hj      1  lig       0.107500
     44 H_17         24.4470    8.0095   28.9134 hk      1  lig       0.107500
     45 H_18         26.2052    5.4494   30.7818 hl      1  lig       0.166100
     46 H_19         22.3705    2.5750   31.9549 hm      1  lig       0.149700
     47 H_1a         24.1826    0.0083   33.8350 hq      1  lig       0.092500
     48 H_1b         22.8116    1.0576   33.5378 hr      1  lig       0.092500
     49 H_1c         23.6827    0.3201   32.1822 ht      1  lig       0.092500
     50 H_1d         26.7329    2.6375   33.1392 hu      1  lig       0.203000
     51 H_1e         28.7666    2.6002   33.9071 hv      1  lig       0.070500
     52 H_1f         29.9206    2.9779   32.6211 hy      1  lig       0.070500
     53 H_1g         29.5482    4.1842   33.8561 hz      1  lig       0.070500
@<TRIPOS>BOND
     1     1     2    1
     2     1    31    1
     3     1    32    1
     4     1    33    1
     5     2     3    1
     6     2    34    1
     7     2    35    1
     8     3     4    1
     9     4    10    2
    10     4     5    1
    11     5     6    2
    12     6     7    1
    13     6    13    1
    14     7     8    2
    15     7    36    1
    16     8     9    1
    17     8    10    1
    18     9    37    1
    19     9    38    1
    20    10    11    1
    21    11    12    3
    22    13    14    1
    23    13    39    1
    24    14    15    2
    25    14    16    1
    26    16    17    1
    27    16    40    1
    28    16    41    1
    29    17    24    1
    30    17    18    2
    31    18    19    1
    32    18    21    1
    33    19    20    1
    34    20    42    1
    35    20    43    1
    36    20    44    1
    37    21    22    2
    38    21    45    1
    39    22    23    1
    40    22    27    1
    41    23    24    2
    42    23    25    1
    43    24    46    1
    44    25    26    1
    45    26    47    1
    46    26    48    1
    47    26    49    1
    48    27    28    1
    49    27    50    1
    50    28    29    2
    51    28    30    1
    52    30    51    1
    53    30    52    1
    54    30    53    1
