@<TRIPOS>MOLECULE
lig
  42   43 0 0 0
SMALL
NO_CHARGES


@<TRIPOS>ATOM
      1 C_00         22.8348   10.6133   29.0685 c4      1  lig      -0.069800
      2 C_01         23.2564   10.8543   30.5245 c5      1  lig       0.263300
      3 O_02         22.1208   11.1384   31.3461 o0      1  lig      -0.350400
      4 C_03         21.3028   10.1143   31.7943 c6      1  lig       0.351700
      5 N_04         21.6562    8.8449   31.4620 n0      1  lig      -0.284900
      6 C_05         20.8562    7.8405   31.8366 c7      1  lig       0.048100
      7 C_06         19.7056    8.0208   32.5847 c8      1  lig      -0.173900
      8 C_07         19.3552    9.3103   32.9399 c9      1  lig       0.161100
      9 N_08         18.1854    9.4218   33.6784 ng      1  lig      -0.788500
     10 C_09         20.1562   10.3962   32.5462 cb      1  lig      -0.027500
     11 C_0a         19.8394   11.7813   32.8754 ci      1  lig       0.284500
     12 N_0b         19.5962   12.8840   33.1326 nr      1  lig      -0.473300
     13 N_0c         21.3594    6.6315   31.4180 nw      1  lig      -0.147100
     14 C_0d         20.7263    5.4857   31.1542 cj      1  lig       0.501600
     15 O_0e         19.5060    5.3615   31.2301 o1      1  lig      -0.542500
     16 C_0f         21.5718    4.2763   30.7231 ck      1  lig      -0.117400
     17 C_0g         23.0667    4.5575   30.5721 cm      1  lig      -0.012000
     18 C_0h         23.9662    4.1691   31.5713 cn      1  lig      -0.174000
     19 C_0i         25.3371    4.3576   31.4206 co      1  lig       0.254000
     20 O_0j         26.1329    3.8953   32.4456 o2      1  lig      -0.333900
     21 C_0k         27.5411    4.0836   32.3620 cq      1  lig      -0.013800
     22 C_0l         25.8096    4.9784   30.2546 cr      1  lig      -0.120200
     23 C_0m         24.9199    5.3917   29.2621 cs      1  lig      -0.256800
     24 C_0n         23.5514    5.1788   29.4197 ct      1  lig      -0.154100
     25 H_0o         23.7034   10.4793   28.4246 h0      1  lig       0.021500
     26 H_0p         22.2151    9.7218   28.9748 h6      1  lig       0.021500
     27 H_0q         22.2619   11.4575   28.6854 h7      1  lig       0.021500
     28 H_0r         23.8512   10.0252   30.9148 h8      1  lig       0.001000
     29 H_0s         23.9087   11.7271   30.5637 h9      1  lig       0.001000
     30 H_0t         19.0962    7.1839   32.8816 hb      1  lig       0.170800
     31 H_0u         17.7193    8.5829   34.0117 hd      1  lig       0.401200
     32 H_0v         17.8208   10.3375   33.9319 he      1  lig       0.401200
     33 H_0w         22.3511    6.6746   31.2616 hf      1  lig       0.148900
     34 H_0x         21.4061    3.4780   31.4455 hg      1  lig       0.088900
     35 H_0y         21.1892    3.9164   29.7717 hh      1  lig       0.088900
     36 H_0z         23.6107    3.6888   32.4714 hi      1  lig       0.121700
     37 H_10         28.0177    3.6454   33.2382 hj      1  lig       0.076300
     38 H_11         27.9621    3.5934   31.4852 hk      1  lig       0.076300
     39 H_12         27.8009    5.1430   32.3415 hl      1  lig       0.076300
     40 H_13         26.8653    5.1405   30.1016 hm      1  lig       0.120100
     41 H_14         25.2923    5.8694   28.3662 hq      1  lig       0.182600
     42 H_15         22.8725    5.4956   28.6399 hr      1  lig       0.156100
@<TRIPOS>BOND
     1     1     2    1
     2     1    25    1
     3     1    26    1
     4     1    27    1
     5     2     3    1
     6     2    28    1
     7     2    29    1
     8     3     4    1
     9     4    10    2
    10     4     5    1
    11     5     6    2
    12     6     7    1
    13     6    13    1
    14     7     8    2
    15     7    30    1
    16     8     9    1
    17     8    10    1
    18     9    31    1
    19     9    32    1
    20    10    11    1
    21    11    12    3
    22    13    14    1
    23    13    33    1
    24    14    15    2
    25    14    16    1
    26    16    17    1
    27    16    34    1
    28    16    35    1
    29    17    24    1
    30    17    18    2
    31    18    19    1
    32    18    36    1
    33    19    20    1
    34    19    22    2
    35    20    21    1
    36    21    37    1
    37    21    38    1
    38    21    39    1
    39    22    23    1
    40    22    40    1
    41    23    24    2
    42    23    41    1
    43    24    42    1
