@<TRIPOS>MOLECULE
lig
  42   43 0 0 0
SMALL
NO_CHARGES


@<TRIPOS>ATOM
      1 C_00         24.0755   12.4055   30.2451 c4      1  lig      -0.080000
      2 C_01         23.3424   11.0801   30.4647 c5      1  lig       0.195800
      3 O_02         22.2047   11.3422   31.2813 o0      1  lig      -0.307900
      4 C_03         21.4058   10.2921   31.7002 c6      1  lig       0.401800
      5 N_04         21.7494    9.0415   31.2875 n0      1  lig      -0.406400
      6 C_05         20.9744    8.0116   31.6611 c7      1  lig       0.137900
      7 C_06         19.8654    8.1565   32.4823 c8      1  lig      -0.266700
      8 C_07         19.5167    9.4285   32.8985 c9      1  lig       0.238200
      9 N_08         18.3785    9.5086   33.6918 ng      1  lig      -0.806900
     10 C_09         20.2859   10.5348   32.5034 cb      1  lig      -0.061600
     11 C_0a         19.9577   11.9052   32.8782 ci      1  lig       0.255000
     12 N_0b         19.7043   12.9964   33.1698 nr      1  lig      -0.462700
     13 N_0c         21.4335    6.8284   31.1203 nw      1  lig      -0.048600
     14 C_0d         20.8529    5.6284   31.0363 cj      1  lig       0.453100
     15 O_0e         19.7241    5.3670   31.4482 o1      1  lig      -0.536600
     16 C_0f         21.6449    4.5576   30.2938 ck      1  lig       0.003700
     17 C_0g         23.0457    4.3201   30.8547 cm      1  lig      -0.015600
     18 C_0h         24.1118    5.1697   30.5127 cn      1  lig       0.106700
     19 O_0i         23.8316    6.2511   29.6969 o2      1  lig      -0.132300
     20 C_0j         24.8029    7.2847   29.5518 co      1  lig      -0.208500
     21 C_0k         25.3922    4.8833   31.0087 cq      1  lig      -0.150700
     22 C_0l         25.6006    3.7978   31.8588 cr      1  lig      -0.174200
     23 C_0m         24.5324    2.9786   32.2141 cs      1  lig      -0.169700
     24 C_0n         23.2600    3.2339   31.7089 ct      1  lig      -0.146600
     25 H_0o         24.9598   12.2663   29.6240 h0      1  lig       0.030800
     26 H_0p         23.4276   13.1271   29.7470 h6      1  lig       0.030800
     27 H_0q         24.3914   12.8398   31.1933 h7      1  lig       0.030800
     28 H_0r         23.0335   10.6532   29.5079 h8      1  lig       0.019700
     29 H_0s         24.0108   10.3654   30.9504 h9      1  lig       0.019700
     30 H_0t         19.2721    7.3090   32.7814 hb      1  lig       0.181100
     31 H_0u         17.8994    8.6601   33.9762 hd      1  lig       0.404000
     32 H_0v         17.9919   10.4140   33.9478 he      1  lig       0.404000
     33 H_0w         22.3442    6.9276   30.6984 hf      1  lig       0.057900
     34 H_0x         21.0871    3.6245   30.2719 hg      1  lig       0.031800
     35 H_0y         21.7205    4.9000   29.2670 hh      1  lig       0.031800
     36 H_0z         25.0949    7.7043   30.5163 hi      1  lig       0.115600
     37 H_10         25.6927    6.9310   29.0289 hj      1  lig       0.115600
     38 H_11         24.3775    8.0953   28.9600 hk      1  lig       0.115600
     39 H_12         26.2390    5.4990   30.7480 hl      1  lig       0.132600
     40 H_13         26.5905    3.5910   32.2418 hm      1  lig       0.160100
     41 H_14         24.6928    2.1325   32.8676 hq      1  lig       0.148400
     42 H_15         22.4448    2.5727   31.9713 hr      1  lig       0.152500
@<TRIPOS>BOND
     1     1     2    1
     2     1    25    1
     3     1    26    1
     4     1    27    1
     5     2     3    1
     6     2    28    1
     7     2    29    1
     8     3     4    1
     9     4    10    2
    10     4     5    1
    11     5     6    2
    12     6     7    1
    13     6    13    1
    14     7     8    2
    15     7    30    1
    16     8     9    1
    17     8    10    1
    18     9    31    1
    19     9    32    1
    20    10    11    1
    21    11    12    3
    22    13    14    1
    23    13    33    1
    24    14    15    2
    25    14    16    1
    26    16    17    1
    27    16    34    1
    28    16    35    1
    29    17    24    1
    30    17    18    2
    31    18    19    1
    32    18    21    1
    33    19    20    1
    34    20    36    1
    35    20    37    1
    36    20    38    1
    37    21    22    2
    38    21    39    1
    39    22    23    1
    40    22    40    1
    41    23    24    2
    42    23    41    1
    43    24    42    1
