@<TRIPOS>MOLECULE
lig
  41   42 0 0 0
SMALL
NO_CHARGES


@<TRIPOS>ATOM
      1 C_00         24.0212   12.2423   30.2763 c4      1  lig      -0.082000
      2 C_01         23.2929   10.9217   30.5380 c5      1  lig       0.208200
      3 O_02         22.1435   11.2077   31.3313 o0      1  lig      -0.316300
      4 C_03         21.3312   10.1711   31.7577 c6      1  lig       0.431500
      5 N_04         21.6809    8.9094   31.3858 n0      1  lig      -0.429300
      6 C_05         20.8904    7.8933   31.7600 c7      1  lig       0.141400
      7 C_06         19.7538    8.0604   32.5352 c8      1  lig      -0.242600
      8 C_07         19.4031    9.3419   32.9176 c9      1  lig       0.237600
      9 N_08         18.2457    9.4395   33.6789 ng      1  lig      -0.810500
     10 C_09         20.1936   10.4361   32.5290 cb      1  lig      -0.083000
     11 C_0a         19.8748   11.8145   32.8832 ci      1  lig       0.266700
     12 N_0b         19.6299   12.9119   33.1596 nr      1  lig      -0.463700
     13 N_0c         21.3867    6.6852   31.3195 nw      1  lig      -0.142000
     14 C_0d         20.7626    5.5181   31.1286 cj      1  lig       0.506100
     15 O_0e         19.5491    5.3722   31.2624 o1      1  lig      -0.550800
     16 C_0f         21.6082    4.3050   30.7113 ck      1  lig      -0.082900
     17 C_0g         23.1035    4.5843   30.5577 cm      1  lig       0.015300
     18 C_0h         24.0149    4.0448   31.4691 cn      1  lig      -0.145600
     19 C_0i         25.3756    4.3277   31.3494 co      1  lig      -0.229600
     20 C_0j         25.8350    5.1529   30.3201 cq      1  lig       0.128800
     21 C_0k         27.3129    5.4673   30.1984 cr      1  lig      -0.171500
     22 C_0l         24.9278    5.6839   29.4014 cs      1  lig      -0.167400
     23 C_0m         23.5681    5.4012   29.5204 ct      1  lig      -0.193500
     24 H_0n         24.9125   12.0836   29.6701 h0      1  lig       0.030900
     25 H_0o         23.3751   12.9405   29.7437 h6      1  lig       0.030900
     26 H_0p         24.3253   12.7145   31.2099 h7      1  lig       0.030900
     27 H_0q         22.9984   10.4586   29.5936 h8      1  lig       0.017300
     28 H_0r         23.9584   10.2281   31.0572 h9      1  lig       0.017300
     29 H_0s         19.1525    7.2183   32.8345 hb      1  lig       0.178800
     30 H_0t         17.7760    8.5960   33.9948 hd      1  lig       0.405600
     31 H_0u         17.8735   10.3508   33.9369 he      1  lig       0.405600
     32 H_0v         22.3717    6.7302   31.1256 hf      1  lig       0.142600
     33 H_0w         21.4430    3.5138   31.4423 hg      1  lig       0.069100
     34 H_0x         21.2203    3.9323   29.7668 hh      1  lig       0.069100
     35 H_0y         23.6745    3.4074   32.2732 hi      1  lig       0.136900
     36 H_0z         26.0730    3.9081   32.0605 hj      1  lig       0.157400
     37 H_10         27.8096    4.7114   29.5901 hk      1  lig       0.061600
     38 H_11         27.4730    6.4405   29.7324 hl      1  lig       0.061600
     39 H_12         27.7937    5.4911   31.1768 hm      1  lig       0.061600
     40 H_13         25.2772    6.3171   28.5974 hq      1  lig       0.138300
     41 H_14         22.8717    5.8252   28.8104 hr      1  lig       0.159600
@<TRIPOS>BOND
     1     1     2    1
     2     1    24    1
     3     1    25    1
     4     1    26    1
     5     2     3    1
     6     2    27    1
     7     2    28    1
     8     3     4    1
     9     4    10    2
    10     4     5    1
    11     5     6    2
    12     6     7    1
    13     6    13    1
    14     7     8    2
    15     7    29    1
    16     8     9    1
    17     8    10    1
    18     9    30    1
    19     9    31    1
    20    10    11    1
    21    11    12    3
    22    13    14    1
    23    13    32    1
    24    14    15    2
    25    14    16    1
    26    16    17    1
    27    16    33    1
    28    16    34    1
    29    17    23    1
    30    17    18    2
    31    18    19    1
    32    18    35    1
    33    19    20    2
    34    19    36    1
    35    20    21    1
    36    20    22    1
    37    21    37    1
    38    21    38    1
    39    21    39    1
    40    22    23    2
    41    22    40    1
    42    23    41    1
