@<TRIPOS>MOLECULE
lig
  48   49 0 0 0
SMALL
NO_CHARGES


@<TRIPOS>ATOM
      1 C_00         24.2764   10.8583   30.5311 c4      1  lig      -0.086400
      2 C_01         22.8724   11.1948   30.0242 c5      1  lig       0.216100
      3 O_02         21.9935   11.3729   31.1346 o0      1  lig      -0.339800
      4 C_03         21.3005   10.2943   31.6577 c6      1  lig       0.339200
      5 N_04         21.6713    9.0502   31.2482 n0      1  lig      -0.265600
      6 C_05         20.9501    8.0000   31.6666 c7      1  lig       0.034300
      7 C_06         19.8665    8.1184   32.5257 c8      1  lig      -0.200500
      8 C_07         19.4926    9.3843   32.9417 c9      1  lig       0.175200
      9 N_08         18.3660    9.4440   33.7525 ng      1  lig      -0.787100
     10 C_09         20.2180   10.5087   32.5170 cb      1  lig      -0.021900
     11 C_0a         19.8684   11.8729   32.8958 ci      1  lig       0.278600
     12 N_0b         19.5992   12.9596   33.1898 nr      1  lig      -0.469000
     13 N_0c         21.4272    6.8285   31.1136 nw      1  lig      -0.030000
     14 C_0d         20.8583    5.6230   31.0220 cj      1  lig       0.444800
     15 O_0e         19.7390    5.3452   31.4465 o1      1  lig      -0.532500
     16 C_0f         21.6500    4.5669   30.2607 ck      1  lig      -0.021800
     17 C_0g         23.0147    4.2719   30.8751 cm      1  lig      -0.065200
     18 C_0h         24.1184    5.0810   30.5810 cn      1  lig       0.083600
     19 O_0i         23.9097    6.1670   29.7482 o2      1  lig      -0.115200
     20 C_0j         24.9546    7.1169   29.5477 co      1  lig      -0.217500
     21 C_0k         25.3567    4.7546   31.1456 cq      1  lig      -0.191600
     22 C_0l         25.5076    3.6737   32.0309 cr      1  lig      -0.072200
     23 N_0m         26.8469    3.4094   32.6231 nA      1  lig       0.790500
     24 O_0n         26.9382    2.7388   33.6465 o3      1  lig      -0.438500
     25 O_0o         27.8303    3.9025   32.0768 o4      1  lig      -0.478100
     26 C_0p         24.3855    2.8726   32.3281 cs      1  lig       0.157300
     27 C_0q         23.1530    3.1840   31.7378 ct      1  lig      -0.125000
     28 O_0r         24.5282    1.8156   33.2068 o5      1  lig      -0.226100
     29 C_0s         23.6287    0.7111   33.1397 cw      1  lig      -0.042400
     30 H_0t         24.9811   10.7710   29.7049 h0      1  lig       0.031400
     31 H_0u         24.6265   11.6406   31.2026 h6      1  lig       0.031400
     32 H_0v         24.2796    9.9166   31.0795 h7      1  lig       0.031400
     33 H_0w         22.9068   12.1390   29.4793 h8      1  lig       0.016100
     34 H_0x         22.5079   10.4570   29.3055 h9      1  lig       0.016100
     35 H_0y         19.3078    7.2565   32.8493 hb      1  lig       0.175300
     36 H_0z         17.8988    8.5880   34.0374 hd      1  lig       0.401900
     37 H_10         17.9566   10.3437   33.9935 he      1  lig       0.401900
     38 H_11         22.3301    6.9544   30.6849 hf      1  lig       0.047000
     39 H_12         21.0732    3.6498   30.1768 hg      1  lig       0.055600
     40 H_13         21.7742    4.9478   29.2516 hh      1  lig       0.055600
     41 H_14         25.2823    7.5646   30.4872 hi      1  lig       0.119400
     42 H_15         25.8130    6.6724   29.0416 hj      1  lig       0.119400
     43 H_16         24.5873    7.9254   28.9151 hk      1  lig       0.119400
     44 H_17         26.2202    5.3584   30.9137 hl      1  lig       0.188000
     45 H_18         22.2857    2.5791   31.9490 hm      1  lig       0.137700
     46 H_19         23.9634   -0.0596   33.8336 hq      1  lig       0.086400
     47 H_1a         22.6108    0.9729   33.4250 hr      1  lig       0.086400
     48 H_1b         23.6162    0.2649   32.1465 ht      1  lig       0.086400
@<TRIPOS>BOND
     1     1     2    1
     2     1    30    1
     3     1    31    1
     4     1    32    1
     5     2     3    1
     6     2    33    1
     7     2    34    1
     8     3     4    1
     9     4    10    2
    10     4     5    1
    11     5     6    2
    12     6     7    1
    13     6    13    1
    14     7     8    2
    15     7    35    1
    16     8     9    1
    17     8    10    1
    18     9    36    1
    19     9    37    1
    20    10    11    1
    21    11    12    3
    22    13    14    1
    23    13    38    1
    24    14    15    2
    25    14    16    1
    26    16    17    1
    27    16    39    1
    28    16    40    1
    29    17    27    1
    30    17    18    2
    31    18    19    1
    32    18    21    1
    33    19    20    1
    34    20    41    1
    35    20    42    1
    36    20    43    1
    37    21    22    2
    38    21    44    1
    39    22    23    1
    40    22    26    1
    41    23    24    1
    42    23    25    2
    43    26    27    2
    44    26    28    1
    45    27    45    1
    46    28    29    1
    47    29    46    1
    48    29    47    1
    49    29    48    1
