@<TRIPOS>MOLECULE
lig
  46   47 0 0 0
SMALL
NO_CHARGES


@<TRIPOS>ATOM
      1 C_00         24.0733   12.4028   30.2323 c4      1  lig      -0.090700
      2 C_01         23.3271   11.0818   30.4341 c5      1  lig       0.218100
      3 O_02         22.2086   11.3387   31.2785 o0      1  lig      -0.315700
      4 C_03         21.4076   10.2889   31.6938 c6      1  lig       0.398600
      5 N_04         21.7457    9.0394   31.2730 n0      1  lig      -0.400700
      6 C_05         20.9690    8.0101   31.6444 c7      1  lig       0.125200
      7 C_06         19.8628    8.1544   32.4699 c8      1  lig      -0.251500
      8 C_07         19.5194    9.4254   32.8937 c9      1  lig       0.222100
      9 N_08         18.3843    9.5057   33.6914 ng      1  lig      -0.801300
     10 C_09         20.2911   10.5310   32.5018 cb      1  lig      -0.054600
     11 C_0a         19.9686   11.9007   32.8839 ci      1  lig       0.258000
     12 N_0b         19.7198   12.9914   33.1811 nr      1  lig      -0.464400
     13 N_0c         21.4264    6.8283   31.0989 nw      1  lig      -0.041400
     14 C_0d         20.8492    5.6257   31.0244 cj      1  lig       0.450200
     15 O_0e         19.7218    5.3642   31.4396 o1      1  lig      -0.534800
     16 C_0f         21.6453    4.5492   30.2959 ck      1  lig       0.027400
     17 C_0g         23.0487    4.3416   30.8592 cm      1  lig      -0.026300
     18 C_0h         24.1093    5.1752   30.4706 cn      1  lig       0.090200
     19 O_0i         23.8251    6.2111   29.5994 o2      1  lig      -0.110000
     20 C_0j         24.7824    7.2540   29.4258 co      1  lig      -0.255400
     21 C_0k         25.3879    4.9247   30.9874 cq      1  lig      -0.245400
     22 C_0l         25.5914    3.9088   31.9220 cr      1  lig      -0.181400
     23 C_0m         24.5221    3.1087   32.3472 cs      1  lig       0.237700
     24 C_0n         23.2656    3.3183   31.7864 ct      1  lig      -0.205500
     25 O_0o         24.6165    2.1143   33.2977 o3      1  lig      -0.322900
     26 C_0p         25.8225    1.9829   34.0425 cw      1  lig       0.026400
     27 H_0q         24.9321   12.2709   29.5744 h0      1  lig       0.032200
     28 H_0r         23.4201   13.1517   29.7829 h6      1  lig       0.032200
     29 H_0s         24.4313   12.7993   31.1825 h7      1  lig       0.032200
     30 H_0t         22.9923   10.6829   29.4737 h8      1  lig       0.015500
     31 H_0u         23.9965   10.3468   30.8876 h9      1  lig       0.015500
     32 H_0v         19.2675    7.3077   32.7672 hb      1  lig       0.178400
     33 H_0w         17.9995   10.4112   33.9502 hd      1  lig       0.402800
     34 H_0x         17.9030    8.6579   33.9746 he      1  lig       0.402800
     35 H_0y         22.3340    6.9317   30.6726 hf      1  lig       0.050800
     36 H_0z         21.0986    3.6093   30.2959 hg      1  lig       0.030400
     37 H_10         21.7112    4.8755   29.2640 hh      1  lig       0.030400
     38 H_11         25.6789    6.8955   28.9178 hi      1  lig       0.125000
     39 H_12         24.3494    8.0402   28.8073 hj      1  lig       0.125000
     40 H_13         25.0654    7.7073   30.3780 hk      1  lig       0.125000
     41 H_14         26.2335    5.5260   30.6895 hl      1  lig       0.169600
     42 H_15         26.5850    3.7612   32.3164 hm      1  lig       0.141500
     43 H_16         22.4552    2.6724   32.0911 hq      1  lig       0.151900
     44 H_17         26.6593    1.6972   33.4036 hr      1  lig       0.062300
     45 H_18         26.0724    2.9044   34.5706 ht      1  lig       0.062300
     46 H_19         25.6996    1.2001   34.7908 hu      1  lig       0.062300
@<TRIPOS>BOND
     1     1     2    1
     2     1    27    1
     3     1    28    1
     4     1    29    1
     5     2     3    1
     6     2    30    1
     7     2    31    1
     8     3     4    1
     9     4    10    2
    10     4     5    1
    11     5     6    2
    12     6     7    1
    13     6    13    1
    14     7     8    2
    15     7    32    1
    16     8     9    1
    17     8    10    1
    18     9    33    1
    19     9    34    1
    20    10    11    1
    21    11    12    3
    22    13    14    1
    23    13    35    1
    24    14    15    2
    25    14    16    1
    26    16    17    1
    27    16    36    1
    28    16    37    1
    29    17    24    1
    30    17    18    2
    31    18    19    1
    32    18    21    1
    33    19    20    1
    34    20    38    1
    35    20    39    1
    36    20    40    1
    37    21    22    2
    38    21    41    1
    39    22    23    1
    40    22    42    1
    41    23    24    2
    42    23    25    1
    43    24    43    1
    44    25    26    1
    45    26    44    1
    46    26    45    1
    47    26    46    1
