@<TRIPOS>MOLECULE
lig
  44   45 0 0 0
SMALL
NO_CHARGES


@<TRIPOS>ATOM
      1 C_00         23.9496   12.4061   30.2951 c4      1  lig      -0.079400
      2 C_01         23.2519   11.0659   30.5395 c5      1  lig       0.232000
      3 O_02         22.1059   11.3120   31.3507 o0      1  lig      -0.325500
      4 C_03         21.3257   10.2498   31.7750 c6      1  lig       0.448600
      5 N_04         21.7076    9.0020   31.3906 n0      1  lig      -0.448200
      6 C_05         20.9482    7.9622   31.7631 c7      1  lig       0.164000
      7 C_06         19.8115    8.0884   32.5458 c8      1  lig      -0.278900
      8 C_07         19.4246    9.3586   32.9354 c9      1  lig       0.260200
      9 N_08         18.2605    9.4247   33.6906 ng      1  lig      -0.813400
     10 C_09         20.1835   10.4770   32.5507 cb      1  lig      -0.112400
     11 C_0a         19.8271   11.8457   32.9062 ci      1  lig       0.278600
     12 N_0b         19.5534   12.9361   33.1819 nr      1  lig      -0.466800
     13 N_0c         21.4602    6.7905   31.2552 nw      1  lig      -0.059200
     14 C_0d         20.8690    5.6163   31.0257 cj      1  lig       0.436500
     15 O_0e         19.7072    5.3517   31.3317 o1      1  lig      -0.530400
     16 C_0f         21.6960    4.6002   30.2412 ck      1  lig      -0.123600
     17 C_0g         23.0923    4.3587   30.8149 cm      1  lig      -0.058000
     18 C_0h         23.3320    3.5009   31.9082 cn      1  lig       0.086800
     19 C_0i         22.2245    2.7564   32.6419 co      1  lig      -0.206600
     20 C_0j         24.6378    3.3402   32.3790 cq      1  lig      -0.217500
     21 C_0k         25.7007    4.0060   31.7729 cr      1  lig      -0.212300
     22 C_0l         25.4683    4.8553   30.6932 cs      1  lig       0.071000
     23 C_0m         26.6266    5.5872   30.0438 ct      1  lig      -0.142200
     24 C_0n         24.1669    5.0304   30.2231 cw      1  lig      -0.148400
     25 H_0o         24.8368   12.2785   29.6758 h0      1  lig       0.028700
     26 H_0p         23.2828   13.1011   29.7843 h6      1  lig       0.028700
     27 H_0q         24.2552   12.8660   31.2344 h7      1  lig       0.028700
     28 H_0r         22.9560   10.6141   29.5902 h8      1  lig       0.011500
     29 H_0s         23.9386   10.3777   31.0378 h9      1  lig       0.011500
     30 H_0t         19.2323    7.2271   32.8336 hb      1  lig       0.183700
     31 H_0u         17.8088    8.5700   34.0033 hd      1  lig       0.406800
     32 H_0v         17.8688   10.3268   33.9516 he      1  lig       0.406800
     33 H_0w         22.4122    6.9078   30.9611 hf      1  lig       0.113600
     34 H_0x         21.1583    3.6552   30.1892 hg      1  lig       0.091000
     35 H_0y         21.7531    4.9685   29.2242 hh      1  lig       0.091000
     36 H_0z         21.3553    2.5384   32.0255 hi      1  lig       0.076000
     37 H_10         22.5860    1.7998   33.0229 hj      1  lig       0.076000
     38 H_11         21.8978    3.3487   33.4963 hk      1  lig       0.076000
     39 H_12         24.8349    2.6931   33.2226 hl      1  lig       0.163500
     40 H_13         26.7047    3.8657   32.1475 hm      1  lig       0.160900
     41 H_14         27.2822    6.0176   30.8015 hq      1  lig       0.055000
     42 H_15         27.2127    4.8995   29.4338 hr      1  lig       0.055000
     43 H_16         26.2815    6.4018   29.4053 ht      1  lig       0.055000
     44 H_17         23.9868    5.7101   29.4031 hu      1  lig       0.125700
@<TRIPOS>BOND
     1     1     2    1
     2     1    25    1
     3     1    26    1
     4     1    27    1
     5     2     3    1
     6     2    28    1
     7     2    29    1
     8     3     4    1
     9     4    10    2
    10     4     5    1
    11     5     6    2
    12     6     7    1
    13     6    13    1
    14     7     8    2
    15     7    30    1
    16     8     9    1
    17     8    10    1
    18     9    31    1
    19     9    32    1
    20    10    11    1
    21    11    12    3
    22    13    14    1
    23    13    33    1
    24    14    15    2
    25    14    16    1
    26    16    17    1
    27    16    34    1
    28    16    35    1
    29    17    24    1
    30    17    18    2
    31    18    19    1
    32    18    20    1
    33    19    36    1
    34    19    37    1
    35    19    38    1
    36    20    21    2
    37    20    39    1
    38    21    22    1
    39    21    40    1
    40    22    23    1
    41    22    24    2
    42    23    41    1
    43    23    42    1
    44    23    43    1
    45    24    44    1
