@<TRIPOS>MOLECULE
lig
  47   48 0 0 0
SMALL
NO_CHARGES


@<TRIPOS>ATOM
      1 O_00         24.2852   12.3288   28.3276 o0      1  lig      -0.710700
      2 C_01         23.5037   12.4810   29.5025 c4      1  lig       0.260000
      3 C_02         22.9866   11.1257   30.0090 c5      1  lig       0.117100
      4 O_03         22.1131   11.3519   31.1177 o1      1  lig      -0.403800
      5 C_04         21.3839   10.2942   31.6329 c6      1  lig       0.489500
      6 N_05         21.7293    9.0437   31.2234 n0      1  lig      -0.422400
      7 C_06         20.9896    8.0072   31.6469 c7      1  lig       0.138000
      8 C_07         19.9094    8.1489   32.5070 c8      1  lig      -0.274000
      9 C_08         19.5594    9.4227   32.9202 c9      1  lig       0.224800
     10 N_09         18.4400    9.5048   33.7395 ng      1  lig      -0.786200
     11 C_0a         20.3035   10.5324   32.4890 cb      1  lig      -0.092800
     12 C_0b         19.9761   11.9037   32.8617 ci      1  lig       0.282800
     13 N_0c         19.7239   12.9956   33.1512 nr      1  lig      -0.471600
     14 N_0d         21.4466    6.8222   31.1057 nw      1  lig      -0.024800
     15 C_0e         20.8624    5.6231   31.0276 cj      1  lig       0.433900
     16 O_0f         19.7368    5.3649   31.4500 o2      1  lig      -0.534000
     17 C_0g         21.6464    4.5487   30.2818 ck      1  lig       0.028600
     18 C_0h         23.0171    4.2597   30.8878 cm      1  lig      -0.096800
     19 C_0i         24.1155    5.0842   30.5962 cn      1  lig       0.066500
     20 O_0j         23.8945    6.1740   29.7723 o3      1  lig      -0.104700
     21 C_0k         24.9287    7.1387   29.5901 co      1  lig      -0.210900
     22 C_0l         25.3625    4.7657   31.1517 cq      1  lig      -0.139600
     23 C_0m         25.4998    3.6732   32.0086 cr      1  lig      -0.261800
     24 C_0n         24.4115    2.8577   32.3080 cs      1  lig       0.245400
     25 C_0o         23.1685    3.1576   31.7364 ct      1  lig      -0.137900
     26 O_0p         24.6403    1.8060   33.1700 o4      1  lig      -0.325600
     27 C_0q         23.7219    0.7155   33.1863 cw      1  lig       0.011500
     28 H_0r         23.6925   12.1645   27.5705 h0      1  lig       0.435000
     29 H_0s         24.1054   12.9602   30.2767 h6      1  lig       0.038000
     30 H_0t         22.6668   13.1501   29.2937 h7      1  lig       0.038000
     31 H_0u         22.4486   10.6181   29.2048 h8      1  lig       0.052000
     32 H_0v         23.8206   10.4854   30.3032 h9      1  lig       0.052000
     33 H_0w         19.3382    7.2973   32.8365 hb      1  lig       0.187500
     34 H_0x         17.9523    8.6584   34.0161 hd      1  lig       0.399300
     35 H_0y         18.0427   10.4109   33.9760 he      1  lig       0.399300
     36 H_0z         22.3576    6.9198   30.6835 hf      1  lig       0.044500
     37 H_10         21.0656    3.6325   30.2173 hg      1  lig       0.029200
     38 H_11         21.7673    4.9118   29.2660 hh      1  lig       0.029200
     39 H_12         25.8009    6.7077   29.0963 hi      1  lig       0.113400
     40 H_13         24.5598    7.9441   28.9547 hj      1  lig       0.113400
     41 H_14         25.2352    7.5868   30.5365 hk      1  lig       0.113400
     42 H_15         26.2360    5.3618   30.9363 hl      1  lig       0.152100
     43 H_16         26.4616    3.4445   32.4445 hm      1  lig       0.167400
     44 H_17         22.3141    2.5340   31.9474 hq      1  lig       0.131800
     45 H_18         24.0963   -0.0558   33.8590 hr      1  lig       0.068000
     46 H_19         22.7347    1.0021   33.5460 ht      1  lig       0.068000
     47 H_1a         23.6203    0.2633   32.2001 hu      1  lig       0.068000
@<TRIPOS>BOND
     1     1     2    1
     2     1    28    1
     3     2     3    1
     4     2    29    1
     5     2    30    1
     6     3     4    1
     7     3    31    1
     8     3    32    1
     9     4     5    1
    10     5    11    2
    11     5     6    1
    12     6     7    2
    13     7     8    1
    14     7    14    1
    15     8     9    2
    16     8    33    1
    17     9    10    1
    18     9    11    1
    19    10    34    1
    20    10    35    1
    21    11    12    1
    22    12    13    3
    23    14    15    1
    24    14    36    1
    25    15    16    2
    26    15    17    1
    27    17    18    1
    28    17    37    1
    29    17    38    1
    30    18    25    1
    31    18    19    2
    32    19    20    1
    33    19    22    1
    34    20    21    1
    35    21    39    1
    36    21    40    1
    37    21    41    1
    38    22    23    2
    39    22    42    1
    40    23    24    1
    41    23    43    1
    42    24    25    2
    43    24    26    1
    44    25    44    1
    45    26    27    1
    46    27    45    1
    47    27    46    1
    48    27    47    1
