@<TRIPOS>MOLECULE
lig
  55   56 0 0 0
SMALL
NO_CHARGES


@<TRIPOS>ATOM
      1 C_00         24.4145   10.2466   30.7179 c4      1  lig      -0.119500
      2 C_01         23.2191   11.0461   30.1836 c5      1  lig       0.234100
      3 C_02         22.7154   10.5298   28.8282 c6      1  lig      -0.086000
      4 O_03         22.1815   11.2380   31.1572 o0      1  lig      -0.320200
      5 C_04         21.4027   10.2023   31.6505 c7      1  lig       0.219800
      6 N_05         21.7305    8.9413   31.2769 n0      1  lig      -0.099900
      7 C_06         20.9695    7.9245   31.6884 c8      1  lig      -0.045000
      8 C_07         19.8692    8.0881   32.5165 c9      1  lig      -0.175800
      9 C_08         19.5323    9.3739   32.9065 cb      1  lig       0.152400
     10 N_09         18.4017    9.4816   33.7079 ng      1  lig      -0.790700
     11 C_0a         20.3042   10.4681   32.4772 ci      1  lig       0.014000
     12 C_0b         19.9961   11.8471   32.8385 cj      1  lig       0.285700
     13 N_0c         19.7584   12.9445   33.1218 nr      1  lig      -0.477300
     14 N_0d         21.4458    6.7432   31.1644 nw      1  lig      -0.095700
     15 C_0e         20.8524    5.5564   31.0443 ck      1  lig       0.502300
     16 O_0f         19.7091    5.3135   31.4219 o1      1  lig      -0.546600
     17 C_0g         21.6443    4.4872   30.3016 cm      1  lig      -0.032000
     18 C_0h         22.9984    4.1711   30.9304 cn      1  lig      -0.037800
     19 C_0i         24.1219    4.9619   30.6449 co      1  lig       0.051500
     20 O_0j         23.9394    6.0555   29.8171 o2      1  lig      -0.118000
     21 C_0k         25.0655    6.8325   29.4151 cq      1  lig      -0.241900
     22 C_0l         25.3547    4.6081   31.2081 cr      1  lig      -0.146600
     23 C_0m         25.4606    3.5028   32.0584 cs      1  lig      -0.015800
     24 S_0n         27.0696    3.0792   32.7393 s0      1  lig       0.958500
     25 O_0o         26.9129    2.7675   34.1691 o3      1  lig      -0.542800
     26 O_0p         28.0400    4.1078   32.3298 o4      1  lig      -0.568300
     27 C_0q         27.5188    1.5242   31.8684 ct      1  lig      -0.225600
     28 C_0r         24.3410    2.7135   32.3514 cw      1  lig       0.065800
     29 C_0s         23.1128    3.0637   31.7753 cA      1  lig      -0.133300
     30 O_0t         24.5003    1.6315   33.1956 o5      1  lig      -0.289800
     31 C_0u         23.5378    0.5806   33.1826 cB      1  lig      -0.075000
     32 H_0v         24.7415   10.6621   31.6655 h0      1  lig       0.033800
     33 H_0w         24.1782    9.1987   30.8859 h6      1  lig       0.033800
     34 H_0x         25.2497   10.2777   30.0192 h7      1  lig       0.033800
     35 H_0y         23.5910   12.0560   30.0010 h8      1  lig       0.046600
     36 H_0z         21.9551   11.1992   28.4337 h9      1  lig       0.019200
     37 H_10         23.5254   10.4948   28.1009 hb      1  lig       0.019200
     38 H_11         22.2876    9.5305   28.8821 hd      1  lig       0.019200
     39 H_12         19.2798    7.2464   32.8395 he      1  lig       0.179000
     40 H_13         17.9105    8.6432   34.0020 hf      1  lig       0.403100
     41 H_14         18.0224   10.3951   33.9434 hg      1  lig       0.403100
     42 H_15         22.3664    6.8521   30.7686 hh      1  lig       0.086300
     43 H_16         21.0572    3.5783   30.2104 hi      1  lig       0.049900
     44 H_17         21.7884    4.8643   29.2940 hj      1  lig       0.049900
     45 H_18         25.7830    6.2359   28.8495 hk      1  lig       0.128400
     46 H_19         24.7303    7.6423   28.7665 hl      1  lig       0.128400
     47 H_1a         25.5715    7.2882   30.2675 hm      1  lig       0.128400
     48 H_1b         26.2391    5.1874   30.9959 hq      1  lig       0.153700
     49 H_1c         27.5468    1.7068   30.7961 hr      1  lig       0.104200
     50 H_1d         28.4945    1.1899   32.2143 ht      1  lig       0.104200
     51 H_1e         26.7698    0.7657   32.0904 hu      1  lig       0.104200
     52 H_1f         22.2363    2.4667   31.9693 hv      1  lig       0.166600
     53 H_1g         22.5553    0.9010   33.5259 hy      1  lig       0.101500
     54 H_1h         23.4436    0.1422   32.1903 hz      1  lig       0.101500
     55 H_1i         23.8677   -0.2111   33.8548 hA      1  lig       0.101500
@<TRIPOS>BOND
     1     1     2    1
     2     1    32    1
     3     1    33    1
     4     1    34    1
     5     2     3    1
     6     2     4    1
     7     2    35    1
     8     3    36    1
     9     3    37    1
    10     3    38    1
    11     4     5    1
    12     5    11    2
    13     5     6    1
    14     6     7    2
    15     7     8    1
    16     7    14    1
    17     8     9    2
    18     8    39    1
    19     9    10    1
    20     9    11    1
    21    10    40    1
    22    10    41    1
    23    11    12    1
    24    12    13    3
    25    14    15    1
    26    14    42    1
    27    15    16    2
    28    15    17    1
    29    17    18    1
    30    17    43    1
    31    17    44    1
    32    18    29    1
    33    18    19    2
    34    19    20    1
    35    19    22    1
    36    20    21    1
    37    21    45    1
    38    21    46    1
    39    21    47    1
    40    22    23    2
    41    22    48    1
    42    23    24    1
    43    23    28    1
    44    24    25    2
    45    24    26    2
    46    24    27    1
    47    27    49    1
    48    27    50    1
    49    27    51    1
    50    28    29    2
    51    28    30    1
    52    29    52    1
    53    30    31    1
    54    31    53    1
    55    31    54    1
    56    31    55    1
