@<TRIPOS>MOLECULE
lig
  50   51 0 0 0
SMALL
NO_CHARGES


@<TRIPOS>ATOM
      1 C_00         25.3050   12.1344   28.3533 c4      1  lig       0.037700
      2 O_01         25.3255   12.3475   29.7610 o0      1  lig      -0.408900
      3 C_02         24.0339   12.4868   30.3516 c5      1  lig       0.117800
      4 C_03         23.3142   11.1388   30.5400 c6      1  lig       0.105900
      5 O_04         22.1418   11.3640   31.3238 o1      1  lig      -0.349300
      6 C_05         21.3619   10.2949   31.7280 c7      1  lig       0.429400
      7 N_06         21.7291    9.0548   31.3049 n0      1  lig      -0.404300
      8 C_07         20.9668    8.0091   31.6649 c8      1  lig       0.123700
      9 C_08         19.8501    8.1315   32.4812 c9      1  lig      -0.251600
     10 C_09         19.4780    9.3944   32.9057 cb      1  lig       0.239200
     11 N_0a         18.3316    9.4546   33.6892 ng      1  lig      -0.834200
     12 C_0b         20.2337   10.5143   32.5251 ci      1  lig      -0.065800
     13 C_0c         19.8862   11.8780   32.9066 cj      1  lig       0.269200
     14 N_0d         19.6195   12.9648   33.2019 nr      1  lig      -0.469200
     15 N_0e         21.4412    6.8348   31.1127 nw      1  lig      -0.029400
     16 C_0f         20.8679    5.6312   31.0118 ck      1  lig       0.427600
     17 O_0g         19.7432    5.3541   31.4246 o2      1  lig      -0.529100
     18 C_0h         21.6641    4.5751   30.2539 cm      1  lig       0.011800
     19 C_0i         23.0297    4.2834   30.8691 cn      1  lig      -0.102200
     20 C_0j         24.1299    5.1089   30.5871 co      1  lig       0.082200
     21 O_0k         23.9130    6.2046   29.7697 o3      1  lig      -0.122300
     22 C_0l         24.9454    7.1747   29.6060 cq      1  lig      -0.190000
     23 C_0m         25.3741    4.7857   31.1456 cr      1  lig      -0.140600
     24 C_0n         25.5056    3.6911   32.0008 cs      1  lig      -0.273900
     25 C_0o         24.4142    2.8780   32.2954 ct      1  lig       0.256300
     26 C_0p         23.1745    3.1802   31.7177 cw      1  lig      -0.146100
     27 O_0q         24.6372    1.8269   33.1598 o4      1  lig      -0.325800
     28 C_0r         23.7198    0.7356   33.1705 cA      1  lig      -0.004000
     29 H_0s         26.3276   12.0663   27.9821 h0      1  lig       0.053100
     30 H_0t         24.7968   11.2069   28.0860 h6      1  lig       0.053100
     31 H_0u         24.8188   12.9601   27.8307 h7      1  lig       0.053100
     32 H_0v         24.1841   12.9412   31.3310 h8      1  lig       0.061800
     33 H_0w         23.4112   13.1869   29.7908 h9      1  lig       0.061800
     34 H_0x         23.0447   10.7045   29.5760 hb      1  lig       0.062400
     35 H_0y         23.9826   10.4389   31.0456 hd      1  lig       0.062400
     36 H_0z         19.2656    7.2744   32.7693 he      1  lig       0.176700
     37 H_10         17.8696    8.5990   33.9826 hf      1  lig       0.414100
     38 H_11         17.9384   10.3545   33.9550 hg      1  lig       0.414100
     39 H_12         22.3546    6.9473   30.7003 hh      1  lig       0.054200
     40 H_13         21.0888    3.6569   30.1676 hi      1  lig       0.039500
     41 H_14         21.7922    4.9565   29.2453 hj      1  lig       0.039500
     42 H_15         25.8243    6.7515   29.1175 hk      1  lig       0.108200
     43 H_16         25.2403    7.6161   30.5591 hl      1  lig       0.108200
     44 H_17         24.5798    7.9840   28.9737 hm      1  lig       0.108200
     45 H_18         26.2495    5.3806   30.9352 hq      1  lig       0.153600
     46 H_19         26.4650    3.4600   32.4406 hr      1  lig       0.170500
     47 H_1a         22.3175    2.5586   31.9244 ht      1  lig       0.135100
     48 H_1b         24.0868   -0.0315   33.8520 hu      1  lig       0.072100
     49 H_1c         22.7275    1.0218   33.5161 hv      1  lig       0.072100
     50 H_1d         23.6316    0.2777   32.1859 hy      1  lig       0.072100
@<TRIPOS>BOND
     1     1     2    1
     2     1    29    1
     3     1    30    1
     4     1    31    1
     5     2     3    1
     6     3     4    1
     7     3    32    1
     8     3    33    1
     9     4     5    1
    10     4    34    1
    11     4    35    1
    12     5     6    1
    13     6    12    2
    14     6     7    1
    15     7     8    2
    16     8     9    1
    17     8    15    1
    18     9    10    2
    19     9    36    1
    20    10    11    1
    21    10    12    1
    22    11    37    1
    23    11    38    1
    24    12    13    1
    25    13    14    3
    26    15    16    1
    27    15    39    1
    28    16    17    2
    29    16    18    1
    30    18    19    1
    31    18    40    1
    32    18    41    1
    33    19    26    1
    34    19    20    2
    35    20    21    1
    36    20    23    1
    37    21    22    1
    38    22    42    1
    39    22    43    1
    40    22    44    1
    41    23    24    2
    42    23    45    1
    43    24    25    1
    44    24    46    1
    45    25    26    2
    46    25    27    1
    47    26    47    1
    48    27    28    1
    49    28    48    1
    50    28    49    1
    51    28    50    1
