@<TRIPOS>MOLECULE
lig
  52   53 0 0 0
SMALL
NO_CHARGES


@<TRIPOS>ATOM
      1 C_00         21.2242   13.7577   29.7743 c4      1  lig      -0.293700
      2 S_01         22.9858   13.4243   29.4250 s0      1  lig       1.005600
      3 O_02         23.3325   14.1347   28.1853 o0      1  lig      -0.599000
      4 O_03         23.7515   13.6655   30.6540 o1      1  lig      -0.572500
      5 C_04         23.0345   11.6250   29.1007 c5      1  lig      -0.073200
      6 C_05         23.2416   10.8260   30.3896 c6      1  lig      -0.027000
      7 O_06         22.1374   11.0915   31.2625 o2      1  lig      -0.238800
      8 C_07         21.3481   10.0698   31.7543 c7      1  lig       0.304700
      9 N_08         21.6928    8.8106   31.3991 n0      1  lig      -0.346700
     10 C_09         20.9169    7.7999   31.7865 c8      1  lig       0.122900
     11 C_0a         19.7851    7.9631   32.5715 c9      1  lig      -0.254200
     12 C_0b         19.4339    9.2500   32.9461 cb      1  lig       0.265200
     13 N_0c         18.2722    9.3640   33.7009 ng      1  lig      -0.850500
     14 C_0d         20.2235   10.3414   32.5432 ci      1  lig      -0.042900
     15 C_0e         19.9110   11.7214   32.8945 cj      1  lig       0.260500
     16 N_0f         19.6714   12.8208   33.1675 nr      1  lig      -0.466400
     17 N_0g         21.4154    6.6269   31.2767 nw      1  lig      -0.038000
     18 C_0h         20.7987    5.4740   31.0443 ck      1  lig       0.441600
     19 O_0i         19.6158    5.2719   31.3028 o3      1  lig      -0.530800
     20 C_0j         21.6200    4.4088   30.3253 cm      1  lig       0.008500
     21 C_0k         22.9824    4.1291   30.9583 cn      1  lig      -0.092900
     22 C_0l         24.0821    4.9595   30.6887 co      1  lig       0.078300
     23 O_0m         23.8687    6.0491   29.8635 o4      1  lig      -0.118900
     24 C_0n         24.9419    6.9455   29.5869 cq      1  lig      -0.203100
     25 C_0o         25.3204    4.6479   31.2676 cr      1  lig      -0.142900
     26 C_0p         25.4495    3.5512   32.1202 cs      1  lig      -0.263800
     27 C_0q         24.3619    2.7258   32.3925 ct      1  lig       0.253200
     28 C_0r         23.1276    3.0227   31.8010 cw      1  lig      -0.150700
     29 O_0s         24.5822    1.6654   33.2461 o5      1  lig      -0.325300
     30 C_0t         23.6524    0.5847   33.2552 cA      1  lig       0.001400
     31 H_0u         20.6224   13.4455   28.9242 h0      1  lig       0.124900
     32 H_0v         20.9239   13.2060   30.6603 h6      1  lig       0.124900
     33 H_0w         21.0976   14.8220   29.9576 h7      1  lig       0.124900
     34 H_0x         22.1221   11.3399   28.5828 h8      1  lig       0.079000
     35 H_0y         23.8612   11.4529   28.4152 h9      1  lig       0.079000
     36 H_0z         23.4140    9.7837   30.1198 hb      1  lig       0.100100
     37 H_10         24.1564   11.1350   30.8975 hd      1  lig       0.100100
     38 H_11         19.1830    7.1215   32.8686 he      1  lig       0.179600
     39 H_12         17.9080   10.2805   33.9495 hf      1  lig       0.420000
     40 H_13         17.7984    8.5273   34.0307 hg      1  lig       0.420000
     41 H_14         22.3652    6.7216   30.9520 hh      1  lig       0.047200
     42 H_15         21.0528    3.4878   30.2402 hi      1  lig       0.039400
     43 H_16         21.7618    4.7818   29.3166 hj      1  lig       0.039400
     44 H_17         25.7707    6.4417   29.0871 hk      1  lig       0.113500
     45 H_18         24.5889    7.7313   28.9191 hl      1  lig       0.113500
     46 H_19         25.3079    7.4296   30.4933 hm      1  lig       0.113500
     47 H_1a         26.1942    5.2498   31.0718 hq      1  lig       0.153700
     48 H_1b         26.4048    3.3255   32.5717 hr      1  lig       0.169200
     49 H_1c         22.2756    2.3889   31.9880 ht      1  lig       0.135100
     50 H_1d         24.0231   -0.2004   33.9140 hu      1  lig       0.070800
     51 H_1e         22.6722    0.8804   33.6279 hv      1  lig       0.070800
     52 H_1f         23.5373    0.1485   32.2627 hy      1  lig       0.070800
@<TRIPOS>BOND
     1     1     2    1
     2     1    31    1
     3     1    32    1
     4     1    33    1
     5     2     3    2
     6     2     4    2
     7     2     5    1
     8     5     6    1
     9     5    34    1
    10     5    35    1
    11     6     7    1
    12     6    36    1
    13     6    37    1
    14     7     8    1
    15     8    14    2
    16     8     9    1
    17     9    10    2
    18    10    11    1
    19    10    17    1
    20    11    12    2
    21    11    38    1
    22    12    13    1
    23    12    14    1
    24    13    39    1
    25    13    40    1
    26    14    15    1
    27    15    16    3
    28    17    18    1
    29    17    41    1
    30    18    19    2
    31    18    20    1
    32    20    21    1
    33    20    42    1
    34    20    43    1
    35    21    28    1
    36    21    22    2
    37    22    23    1
    38    22    25    1
    39    23    24    1
    40    24    44    1
    41    24    45    1
    42    24    46    1
    43    25    26    2
    44    25    47    1
    45    26    27    1
    46    26    48    1
    47    27    28    2
    48    27    29    1
    49    28    49    1
    50    29    30    1
    51    30    50    1
    52    30    51    1
    53    30    52    1
