@<TRIPOS>MOLECULE
lig
  46   49 0 0 0
SMALL
NO_CHARGES


@<TRIPOS>ATOM
      1 F_00          7.3708    6.6694   19.4306 f0      1  lig      -0.174936
      2 C_01          7.1319    5.3608   19.6927 c4      1  lig       0.211612
      3 C_02          7.7632    4.3750   18.9177 c5      1  lig      -0.163751
      4 C_03          7.5434    3.0102   19.1828 c6      1  lig      -0.010491
      5 N_04          8.1204    2.0271   18.3375 n0      1  lig       0.052654
      6 C_05          9.2306    1.3351   18.8350 c7      1  lig      -0.130873
      7 C_06          9.8603    0.3869   18.1264 c8      1  lig      -0.263181
      8 C_07          9.3350    0.0563   16.8243 c9      1  lig      -0.027929
      9 C_08          8.2685    0.7180   16.3318 cb      1  lig      -0.372048
     10 C_09          7.5983    1.7710   17.0988 ci      1  lig       0.606315
     11 O_0a          6.6207    2.3769   16.6622 o0      1  lig      -0.574991
     12 C_0b          6.7491    2.6329   20.2861 cj      1  lig      -0.204821
     13 C_0c          6.1102    3.6169   21.0654 ck      1  lig      -0.142203
     14 C_0d          6.2597    4.9820   20.7366 cm      1  lig       0.083738
     15 N_0e          5.5440    5.9583   21.4674 ng      1  lig      -0.389137
     16 C_0f          4.7277    6.8754   20.9118 cn      1  lig       0.637060
     17 O_0g          4.4591    6.8840   19.7115 o1      1  lig      -0.529482
     18 C_0h          4.0773    7.9455   21.8095 co      1  lig      -0.158409
     19 N_0i          4.5321    8.0040   23.2065 nr      1  lig       0.055570
     20 C_0j          3.8262    7.8594   24.3685 cq      1  lig       0.213542
     21 H_0k          2.7590    7.7044   24.4281 h0      1  lig       0.174893
     22 N_0l          6.9303    8.2575   25.6548 nw      1  lig      -0.709266
     23 C_0m          8.1187    8.7915   25.3144 cr      1  lig       0.712673
     24 O_0n          8.3086    9.4847   24.3158 o2      1  lig      -0.496195
     25 C_0o          9.2260    8.4538   26.2247 cs      1  lig      -0.174577
     26 C_0p          9.2413    7.8643   27.4655 ct      1  lig      -0.105443
     27 C_0q         10.5570    7.5816   27.9279 cw      1  lig      -0.130112
     28 S_0r         10.8466    8.7952   25.6601 s0      1  lig       0.060589
     29 C_0s         11.5155    7.9856   27.0418 cA      1  lig      -0.018770
     30 Cl0t         13.2155    7.7759   27.1438 a0      1  lig      -0.021919
     31 N_0u          4.6333    7.9362   25.4017 nA      1  lig      -0.668528
     32 N_0v          5.8143    8.2047   23.5213 nB      1  lig      -0.514624
     33 C_0w          5.8102    8.1819   24.8460 cB      1  lig       0.840795
     34 H_0x          8.4064    4.6717   18.1087 h6      1  lig       0.174752
     35 H_0y          9.5299    1.6301   19.8219 h7      1  lig       0.184803
     36 H_0z         10.7195   -0.1303   18.5280 h8      1  lig       0.164295
     37 H_10          9.7974   -0.7274   16.2451 h9      1  lig       0.161471
     38 H_11          7.8886    0.4590   15.3547 hb      1  lig       0.167510
     39 H_12          6.6072    1.5884   20.5144 hd      1  lig       0.161939
     40 H_13          5.4794    3.3228   21.8912 he      1  lig       0.168600
     41 H_14          5.6487    5.9483   22.4728 hf      1  lig       0.242447
     42 H_15          4.2683    8.9249   21.3630 hg      1  lig       0.108384
     43 H_16          2.9938    7.8001   21.7878 hh      1  lig       0.108384
     44 H_17          6.8548    7.8305   26.5613 hi      1  lig       0.362632
     45 H_18          8.3683    7.5867   28.0364 hj      1  lig       0.166889
     46 H_19         10.7462    7.0828   28.8630 hk      1  lig       0.160139
@<TRIPOS>BOND
     1     1     2    1
     2     2     3    1
     3     2    14    2
     4     3     4    2
     5     3    34    1
     6     4     5    1
     7     4    12    1
     8     5     6    1
     9     5    10    1
    10     6     7    2
    11     6    35    1
    12     7     8    1
    13     7    36    1
    14     8     9    2
    15     8    37    1
    16     9    10    1
    17     9    38    1
    18    10    11    2
    19    12    13    2
    20    12    39    1
    21    13    14    1
    22    13    40    1
    23    14    15    1
    24    15    16    1
    25    15    41    1
    26    16    17    2
    27    16    18    1
    28    18    19    1
    29    18    42    1
    30    18    43    1
    31    19    20    1
    32    19    32    1
    33    20    21    1
    34    20    31    2
    35    22    23    1
    36    22    33    1
    37    22    44    1
    38    23    24    2
    39    23    25    1
    40    25    26    2
    41    25    28    1
    42    26    27    1
    43    26    45    1
    44    27    29    2
    45    27    46    1
    46    28    29    1
    47    29    30    1
    48    31    33    1
    49    32    33    2
