@<TRIPOS>MOLECULE
lig
  46   49 0 0 0
SMALL
NO_CHARGES


@<TRIPOS>ATOM
      1 F_00          7.3708    6.6695   19.4306 f0      1  lig      -0.174882
      2 C_01          7.1319    5.3608   19.6928 c4      1  lig       0.178846
      3 C_02          7.7632    4.3750   18.9177 c5      1  lig      -0.144822
      4 C_03          7.5434    3.0102   19.1828 c6      1  lig      -0.010397
      5 N_04          8.1204    2.0271   18.3375 n0      1  lig       0.048342
      6 C_05          9.2306    1.3351   18.8350 c7      1  lig      -0.129797
      7 C_06          9.8603    0.3869   18.1264 c8      1  lig      -0.262088
      8 C_07          9.3350    0.0563   16.8243 c9      1  lig      -0.031076
      9 C_08          8.2685    0.7180   16.3318 cb      1  lig      -0.370909
     10 C_09          7.5983    1.7710   17.0988 ci      1  lig       0.607022
     11 O_0a          6.6207    2.3769   16.6622 o0      1  lig      -0.575389
     12 C_0b          6.7491    2.6329   20.2861 cj      1  lig      -0.210097
     13 C_0c          6.1102    3.6168   21.0654 ck      1  lig      -0.168693
     14 C_0d          6.2597    4.9820   20.7366 cm      1  lig       0.112017
     15 N_0e          5.5440    5.9583   21.4674 ng      1  lig      -0.314030
     16 C_0f          4.7277    6.8754   20.9118 cn      1  lig       0.605810
     17 O_0g          4.4591    6.8840   19.7115 o1      1  lig      -0.531900
     18 C_0h          4.0757    7.9456   21.8157 co      1  lig      -0.161411
     19 C_0i          4.4287    7.9643   23.2991 cq      1  lig       0.132111
     20 C_0j          3.5235    7.8255   24.3495 cr      1  lig      -0.309216
     21 N_0k          6.9595    8.2566   25.7434 nr      1  lig      -0.552616
     22 C_0l          8.1461    8.7928   25.3980 cs      1  lig       0.681628
     23 O_0m          8.3359    9.4859   24.3994 o2      1  lig      -0.455664
     24 C_0n          9.2533    8.4550   26.3084 ct      1  lig      -0.219195
     25 C_0o          9.2686    7.8655   27.5491 cw      1  lig      -0.078736
     26 C_0p         10.5844    7.5828   28.0116 cA      1  lig      -0.142272
     27 S_0q         10.8740    8.7964   25.7438 s0      1  lig       0.070388
     28 C_0r         11.5428    7.9868   27.1254 cB      1  lig      -0.004298
     29 Cl0s         13.2428    7.7771   27.2274 a0      1  lig      -0.019898
     30 S_0t          4.3364    7.9595   25.8722 s1      1  lig      -0.020539
     31 N_0u          5.6858    8.1434   23.6788 nw      1  lig      -0.270336
     32 C_0v          5.8066    8.1865   24.9901 cC      1  lig       0.309544
     33 H_0w          8.4064    4.6717   18.1087 h0      1  lig       0.170387
     34 H_0x          9.5299    1.6301   19.8219 h6      1  lig       0.183039
     35 H_0y         10.7195   -0.1303   18.5280 h7      1  lig       0.162466
     36 H_0z          9.7974   -0.7274   16.2451 h8      1  lig       0.160711
     37 H_10          7.8886    0.4590   15.3547 h9      1  lig       0.166164
     38 H_11          6.6072    1.5884   20.5144 hb      1  lig       0.161330
     39 H_12          5.4794    3.3228   21.8912 hd      1  lig       0.183438
     40 H_13          5.6487    5.9483   22.4728 he      1  lig       0.134786
     41 H_14          4.2682    8.9249   21.3630 hf      1  lig       0.078449
     42 H_15          2.9938    7.8001   21.7877 hg      1  lig       0.078449
     43 H_16          6.8821    7.8317   26.6450 hh      1  lig       0.363468
     44 H_17          8.3957    7.5879   28.1201 hi      1  lig       0.151774
     45 H_18         10.7736    7.0840   28.9467 hj      1  lig       0.163785
     46 H_19          2.4586    7.6674   24.3009 hk      1  lig       0.254307
@<TRIPOS>BOND
     1     1     2    1
     2     2     3    2
     3     2    14    1
     4     3     4    1
     5     3    33    1
     6     4     5    1
     7     4    12    2
     8     5     6    1
     9     5    10    1
    10     6     7    2
    11     6    34    1
    12     7     8    1
    13     7    35    1
    14     8     9    2
    15     8    36    1
    16     9    10    1
    17     9    37    1
    18    10    11    2
    19    12    13    1
    20    12    38    1
    21    13    14    2
    22    13    39    1
    23    14    15    1
    24    15    16    1
    25    15    40    1
    26    16    17    2
    27    16    18    1
    28    18    19    1
    29    18    41    1
    30    18    42    1
    31    19    20    2
    32    19    31    1
    33    20    30    1
    34    20    46    1
    35    21    22    1
    36    21    32    1
    37    21    43    1
    38    22    23    2
    39    22    24    1
    40    24    25    2
    41    24    27    1
    42    25    26    1
    43    25    44    1
    44    26    28    2
    45    26    45    1
    46    27    28    1
    47    28    29    1
    48    30    32    1
    49    31    32    2
