@<TRIPOS>MOLECULE
lig
  47   50 0 0 0
SMALL
NO_CHARGES


@<TRIPOS>ATOM
      1 F_00          7.3708    6.6694   19.4306 f0      1  lig      -0.176052
      2 C_01          7.1319    5.3608   19.6928 c4      1  lig       0.201664
      3 C_02          7.7632    4.3750   18.9177 c5      1  lig      -0.156535
      4 C_03          7.5434    3.0102   19.1828 c6      1  lig      -0.011207
      5 N_04          8.1204    2.0271   18.3375 n0      1  lig       0.050852
      6 C_05          9.2306    1.3351   18.8350 c7      1  lig      -0.129668
      7 C_06          9.8603    0.3869   18.1264 c8      1  lig      -0.262341
      8 C_07          9.3350    0.0563   16.8243 c9      1  lig      -0.031214
      9 C_08          8.2685    0.7180   16.3318 cb      1  lig      -0.370345
     10 C_09          7.5983    1.7710   17.0988 ci      1  lig       0.605960
     11 O_0a          6.6207    2.3769   16.6622 o0      1  lig      -0.575403
     12 C_0b          6.7491    2.6329   20.2861 cj      1  lig      -0.208643
     13 C_0c          6.1102    3.6168   21.0654 ck      1  lig      -0.143777
     14 C_0d          6.2597    4.9820   20.7366 cm      1  lig       0.088643
     15 N_0e          5.5440    5.9583   21.4674 ng      1  lig      -0.348217
     16 C_0f          4.7277    6.8754   20.9118 cn      1  lig       0.602287
     17 O_0g          4.4591    6.8840   19.7115 o1      1  lig      -0.533596
     18 C_0h          4.0742    7.9445   21.8054 co      1  lig      -0.095140
     19 N_0i          4.4772    7.9868   23.2096 nr      1  lig       0.111350
     20 C_0j          3.6740    7.8433   24.3094 cq      1  lig      -0.080877
     21 H_0k          2.6062    7.6819   24.3212 h0      1  lig       0.202096
     22 N_0l          6.9291    8.2549   25.6572 nw      1  lig      -0.588440
     23 C_0m          8.1187    8.7915   25.3144 cr      1  lig       0.663511
     24 O_0n          8.3086    9.4847   24.3158 o2      1  lig      -0.462237
     25 C_0o          9.2260    8.4538   26.2247 cs      1  lig      -0.182971
     26 C_0p          9.2413    7.8643   27.4655 ct      1  lig      -0.099351
     27 C_0q         10.5570    7.5816   27.9279 cw      1  lig      -0.138740
     28 S_0r         10.8466    8.7952   25.6601 s0      1  lig       0.053540
     29 C_0s         11.5155    7.9856   27.0418 cA      1  lig      -0.007693
     30 Cl0t         13.2155    7.7759   27.1438 a0      1  lig      -0.026509
     31 C_0u          4.5153    7.9482   25.4016 cB      1  lig      -0.426494
     32 H_0v          4.2426    7.8760   26.4441 h6      1  lig       0.208039
     33 N_0w          5.7585    8.1760   23.5566 nA      1  lig      -0.443938
     34 C_0x          5.7912    8.1669   24.8768 cC      1  lig       0.483629
     35 H_0y          8.4064    4.6717   18.1087 h7      1  lig       0.171700
     36 H_0z          9.5299    1.6301   19.8219 h8      1  lig       0.183524
     37 H_10         10.7195   -0.1303   18.5280 h9      1  lig       0.163713
     38 H_11          9.7974   -0.7274   16.2451 hb      1  lig       0.161251
     39 H_12          7.8886    0.4590   15.3547 hd      1  lig       0.166390
     40 H_13          6.6072    1.5884   20.5144 he      1  lig       0.163653
     41 H_14          5.4795    3.3228   21.8912 hf      1  lig       0.164057
     42 H_15          5.6487    5.9483   22.4728 hg      1  lig       0.212334
     43 H_16          4.2683    8.9249   21.3630 hh      1  lig       0.091419
     44 H_17          2.9938    7.8001   21.7877 hi      1  lig       0.091419
     45 H_18          6.8548    7.8305   26.5613 hj      1  lig       0.338678
     46 H_19          8.3683    7.5867   28.0364 hk      1  lig       0.159341
     47 H_1a         10.7462    7.0828   28.8630 hl      1  lig       0.160338
@<TRIPOS>BOND
     1     1     2    1
     2     2     3    1
     3     2    14    2
     4     3     4    2
     5     3    35    1
     6     4     5    1
     7     4    12    1
     8     5     6    1
     9     5    10    1
    10     6     7    2
    11     6    36    1
    12     7     8    1
    13     7    37    1
    14     8     9    2
    15     8    38    1
    16     9    10    1
    17     9    39    1
    18    10    11    2
    19    12    13    2
    20    12    40    1
    21    13    14    1
    22    13    41    1
    23    14    15    1
    24    15    16    1
    25    15    42    1
    26    16    17    2
    27    16    18    1
    28    18    19    1
    29    18    43    1
    30    18    44    1
    31    19    20    1
    32    19    33    1
    33    20    21    1
    34    20    31    2
    35    22    23    1
    36    22    34    1
    37    22    45    1
    38    23    24    2
    39    23    25    1
    40    25    26    2
    41    25    28    1
    42    26    27    1
    43    26    46    1
    44    27    29    2
    45    27    47    1
    46    28    29    1
    47    29    30    1
    48    31    32    1
    49    31    34    1
    50    33    34    2
