@<TRIPOS>MOLECULE
lig
  45   48 0 0 0
SMALL
NO_CHARGES


@<TRIPOS>ATOM
      1 F_00          7.3708    6.6695   19.4306 f0      1  lig      -0.173557
      2 C_01          7.1319    5.3608   19.6928 c4      1  lig       0.217644
      3 C_02          7.7632    4.3750   18.9177 c5      1  lig      -0.165842
      4 C_03          7.5434    3.0102   19.1828 c6      1  lig      -0.014364
      5 N_04          8.1204    2.0271   18.3375 n0      1  lig       0.056620
      6 C_05          9.2306    1.3351   18.8350 c7      1  lig      -0.137328
      7 C_06          9.8603    0.3869   18.1264 c8      1  lig      -0.256701
      8 C_07          9.3350    0.0563   16.8243 c9      1  lig      -0.027058
      9 C_08          8.2685    0.7180   16.3318 cb      1  lig      -0.373620
     10 C_09          7.5983    1.7710   17.0988 ci      1  lig       0.607456
     11 O_0a          6.6207    2.3769   16.6622 o0      1  lig      -0.573465
     12 C_0b          6.7491    2.6329   20.2861 cj      1  lig      -0.208640
     13 C_0c          6.1102    3.6168   21.0654 ck      1  lig      -0.131335
     14 C_0d          6.2597    4.9820   20.7366 cm      1  lig       0.094978
     15 N_0e          5.5440    5.9583   21.4674 ng      1  lig      -0.430980
     16 C_0f          4.7277    6.8754   20.9118 cn      1  lig       0.623470
     17 O_0g          4.4591    6.8840   19.7115 o1      1  lig      -0.514350
     18 C_0h          4.0770    7.9466   21.8057 co      1  lig      -0.089226
     19 N_0i          4.5550    8.0192   23.1875 nr      1  lig       0.375873
     20 N_0j          3.7699    7.7978   24.2426 nw      1  lig      -0.167470
     21 N_0k          6.9289    8.2575   25.6526 nA      1  lig      -0.747541
     22 C_0l          8.1187    8.7915   25.3144 cq      1  lig       0.725518
     23 O_0m          8.3086    9.4847   24.3158 o2      1  lig      -0.489646
     24 C_0n          9.2260    8.4538   26.2247 cr      1  lig      -0.178719
     25 C_0o          9.2413    7.8643   27.4655 cs      1  lig      -0.087710
     26 C_0p         10.5570    7.5816   27.9279 ct      1  lig      -0.155087
     27 S_0q         10.8466    8.7952   25.6601 s0      1  lig       0.058942
     28 C_0r         11.5155    7.9856   27.0418 cw      1  lig      -0.004823
     29 Cl0s         13.2155    7.7759   27.1438 a0      1  lig      -0.017639
     30 N_0t          4.6295    7.8986   25.3251 nB      1  lig      -0.431546
     31 N_0u          5.8329    8.2478   23.5033 nC      1  lig      -0.542984
     32 C_0v          5.8187    8.1820   24.8237 cA      1  lig       0.871823
     33 H_0w          8.4064    4.6717   18.1087 h0      1  lig       0.176624
     34 H_0x          9.5299    1.6301   19.8219 h6      1  lig       0.185423
     35 H_0y         10.7195   -0.1303   18.5280 h7      1  lig       0.163157
     36 H_0z          9.7974   -0.7274   16.2451 h8      1  lig       0.161432
     37 H_10          7.8886    0.4590   15.3547 h9      1  lig       0.168858
     38 H_11          6.6072    1.5884   20.5144 hb      1  lig       0.165725
     39 H_12          5.4795    3.3228   21.8912 hd      1  lig       0.159340
     40 H_13          5.6487    5.9482   22.4728 he      1  lig       0.245206
     41 H_14          4.2683    8.9249   21.3630 hf      1  lig       0.087157
     42 H_15          2.9938    7.8001   21.7878 hg      1  lig       0.087157
     43 H_16          6.8548    7.8305   26.5613 hh      1  lig       0.346572
     44 H_17          8.3683    7.5867   28.0364 hi      1  lig       0.173671
     45 H_18         10.7462    7.0828   28.8630 hj      1  lig       0.166985
@<TRIPOS>BOND
     1     1     2    1
     2     2     3    2
     3     2    14    1
     4     3     4    1
     5     3    33    1
     6     4     5    1
     7     4    12    2
     8     5     6    1
     9     5    10    1
    10     6     7    2
    11     6    34    1
    12     7     8    1
    13     7    35    1
    14     8     9    2
    15     8    36    1
    16     9    10    1
    17     9    37    1
    18    10    11    2
    19    12    13    1
    20    12    38    1
    21    13    14    2
    22    13    39    1
    23    14    15    1
    24    15    16    1
    25    15    40    1
    26    16    17    2
    27    16    18    1
    28    18    19    1
    29    18    41    1
    30    18    42    1
    31    19    20    1
    32    19    31    1
    33    20    30    2
    34    21    22    1
    35    21    32    1
    36    21    43    1
    37    22    23    2
    38    22    24    1
    39    24    25    2
    40    24    27    1
    41    25    26    1
    42    25    44    1
    43    26    28    2
    44    26    45    1
    45    27    28    1
    46    28    29    1
    47    30    32    1
    48    31    32    2
