@<TRIPOS>MOLECULE
lig
  52   54 0 0 0
SMALL
NO_CHARGES


@<TRIPOS>ATOM
      1 N_00         18.3477  -13.2695   21.7072 n0      1  lig      -0.017500
      2 C_01         18.1765  -11.9782   21.0132 c4      1  lig      -0.021800
      3 C_02         17.4561  -13.7932   22.5862 c5      1  lig       0.065800
      4 O_03         16.4566  -13.1696   22.9501 o0      1  lig      -0.407900
      5 C_04         16.7891  -11.7919   20.3607 c6      1  lig       0.355900
      6 O_05         16.3129  -12.6820   19.6534 o1      1  lig      -0.479300
      7 C_06         19.2877  -11.9490   19.9528 c7      1  lig      -0.179400
      8 C_07         17.6818  -15.1940   23.1883 c8      1  lig       0.169900
      9 N_08         16.1564  -10.6408   20.6065 ng      1  lig      -0.380200
     10 C_09         20.3708  -12.8696   20.4764 c9      1  lig      -0.009500
     11 N_0a         16.4280  -15.9626   23.1045 nr      1  lig      -0.157900
     12 C_0b         18.1548  -15.1270   24.6591 cb      1  lig      -0.112700
     13 C_0c         14.8280  -10.2760   20.1411 ci      1  lig      -0.061600
     14 C_0d         19.6283  -13.8844   21.3391 cj      1  lig      -0.009500
     15 C_0e         19.5750  -14.6212   24.8423 ck      1  lig       0.008200
     16 C_0f         13.7200  -10.6282   21.1183 cm      1  lig      -0.008300
     17 C_0g         20.6767  -15.4490   24.5360 cn      1  lig      -0.137100
     18 C_0h         13.2089  -11.9431   21.1732 co      1  lig      -0.157600
     19 C_0i         21.9890  -14.9496   24.6571 cq      1  lig      -0.150000
     20 C_0j         12.1531  -12.2553   22.0546 cr      1  lig      -0.182300
     21 C_0k         22.2038  -13.6243   25.0836 cs      1  lig      -0.078900
     22 C_0l         11.6074  -11.2561   22.8870 ct      1  lig      -0.179200
     23 C_0m         21.1084  -12.8096   25.4224 cw      1  lig      -0.181400
     24 C_0n         12.1303   -9.9484   22.8494 cA      1  lig       0.155900
     25 C_0o         19.8037  -13.3135   25.3100 cB      1  lig      -0.105700
     26 C_0p         13.1834   -9.6356   21.9677 cC      1  lig      -0.045400
     27 H_0q         18.3473  -11.1866   21.7427 h0      1  lig       0.120000
     28 H_0r         18.9283  -12.3278   18.9940 h6      1  lig       0.106800
     29 H_0s         19.6663  -10.9449   19.7868 h7      1  lig       0.106800
     30 H_0t         18.4070  -15.7607   22.6062 h8      1  lig       0.072100
     31 H_0u         16.6541   -9.9374   21.1520 h9      1  lig       0.327100
     32 H_0v         20.9506  -13.3366   19.6790 hb      1  lig       0.049900
     33 H_0w         21.0642  -12.3021   21.0991 hd      1  lig       0.049900
     34 H_0x         16.5546  -16.8799   23.5049 he      1  lig       0.254000
     35 H_0y         15.7068  -15.4618   23.6107 hf      1  lig       0.254000
     36 H_0z         16.1495  -16.0443   22.1377 hg      1  lig       0.254000
     37 H_10         17.4693  -14.5110   25.2456 hh      1  lig       0.082700
     38 H_11         18.1057  -16.1206   25.1069 hi      1  lig       0.082700
     39 H_12         14.8206   -9.1968   19.9898 hj      1  lig       0.127200
     40 H_13         14.6149  -10.7331   19.1722 hk      1  lig       0.127200
     41 H_14         20.2303  -14.1483   22.2066 hl      1  lig       0.061800
     42 H_15         19.4426  -14.7918   20.7627 hm      1  lig       0.061800
     43 H_16         20.5231  -16.4639   24.1961 hq      1  lig       0.123500
     44 H_17         13.6273  -12.7128   20.5372 hr      1  lig       0.149400
     45 H_18         22.8339  -15.5815   24.4209 ht      1  lig       0.153400
     46 H_19         11.7602  -13.2621   22.0956 hu      1  lig       0.186500
     47 H_1a         23.2093  -13.2396   25.1644 hv      1  lig       0.144000
     48 H_1b         21.2545  -11.7997   25.7767 hy      1  lig       0.159500
     49 F_1c         11.6288   -8.9896   23.6636 f0      1  lig      -0.180300
     50 H_1d         18.9815  -12.6889   25.6020 hz      1  lig       0.158100
     51 H_1e         13.5784   -8.6306   21.9529 hA      1  lig       0.099800
     52 H_1f         10.7939  -11.4932   23.5600 hB      1  lig       0.175600
@<TRIPOS>BOND
     1     1     2    1
     2     1    14    1
     3     1     3    1
     4     2     5    1
     5     2     7    1
     6     2    27    1
     7     3     8    1
     8     3     4    2
     9     5     6    2
    10     5     9    1
    11     7    10    1
    12     7    28    1
    13     7    29    1
    14     8    11    1
    15     8    12    1
    16     8    30    1
    17     9    13    1
    18     9    31    1
    19    10    14    1
    20    10    32    1
    21    10    33    1
    22    11    34    1
    23    11    35    1
    24    11    36    1
    25    12    15    1
    26    12    37    1
    27    12    38    1
    28    13    16    1
    29    13    39    1
    30    13    40    1
    31    14    41    1
    32    14    42    1
    33    15    17    2
    34    15    25    1
    35    16    18    2
    36    16    26    1
    37    17    19    1
    38    17    43    1
    39    18    20    1
    40    18    44    1
    41    19    21    2
    42    19    45    1
    43    20    22    2
    44    20    46    1
    45    21    23    1
    46    21    47    1
    47    22    24    1
    48    22    52    1
    49    23    25    2
    50    23    48    1
    51    24    26    2
    52    24    49    1
    53    25    50    1
    54    26    51    1
