@<TRIPOS>MOLECULE
lig
  52   54 0 0 0
SMALL
NO_CHARGES


@<TRIPOS>ATOM
      1 N_00         18.2653  -13.2407   21.7065 n0      1  lig      -0.011200
      2 C_01         18.0666  -11.9445   21.0290 c4      1  lig      -0.022300
      3 C_02         17.3965  -13.7802   22.5963 c5      1  lig       0.073100
      4 O_03         16.3982  -13.1682   22.9797 o0      1  lig      -0.421600
      5 C_04         16.6625  -11.7536   20.4056 c6      1  lig       0.392900
      6 O_05         16.1638  -12.6466   19.7188 o1      1  lig      -0.489300
      7 C_06         19.1633  -11.8944   19.9556 c7      1  lig      -0.186300
      8 C_07         17.6504  -15.1803   23.1883 c8      1  lig       0.167700
      9 N_08         16.0423  -10.5938   20.6504 ng      1  lig      -0.384600
     10 C_09         20.2631  -12.8149   20.4461 c9      1  lig      -0.000400
     11 N_0a         16.4086  -15.9682   23.1113 nr      1  lig      -0.165900
     12 C_0b         18.1359  -15.1116   24.6549 cb      1  lig      -0.167400
     13 C_0c         14.7042  -10.2162   20.2151 ci      1  lig      -0.052200
     14 C_0d         19.5455  -13.8412   21.3148 cj      1  lig      -0.012800
     15 C_0e         19.5607  -14.6147   24.8273 ck      1  lig       0.017700
     16 C_0f         13.6411  -10.3567   21.2915 cm      1  lig       0.017900
     17 C_0g         19.8041  -13.3098   25.2934 cn      1  lig      -0.108500
     18 C_0h         12.9051  -11.5528   21.4232 co      1  lig      -0.176800
     19 C_0i         21.1138  -12.8171   25.3982 cq      1  lig      -0.182800
     20 C_0j         11.8942  -11.6572   22.4010 cr      1  lig      -0.150700
     21 C_0k         22.2000  -13.6406   25.0541 cs      1  lig      -0.073400
     22 C_0l         11.6200  -10.5698   23.2551 ct      1  lig      -0.089700
     23 C_0m         21.9704  -14.9618   24.6258 cw      1  lig      -0.159600
     24 C_0n         12.3724   -9.3839   23.1465 cA      1  lig      -0.051700
     25 C_0o         20.6532  -15.4491   24.5107 cB      1  lig      -0.127700
     26 C_0p         13.3735   -9.2784   22.1614 cC      1  lig       0.023500
     27 H_0q         18.2473  -11.1607   21.7642 h0      1  lig       0.121300
     28 H_0r         18.7918  -12.2521   18.9936 h6      1  lig       0.103400
     29 H_0s         19.5370  -10.8863   19.8145 h7      1  lig       0.103400
     30 H_0t         18.3784  -15.7341   22.5976 h8      1  lig       0.085000
     31 H_0u         16.5623   -9.8919   21.1770 h9      1  lig       0.321800
     32 H_0v         20.8307  -13.2708   19.6333 hb      1  lig       0.049200
     33 H_0w         20.9665  -12.2499   21.0595 hd      1  lig       0.049200
     34 H_0x         16.5518  -16.8840   23.5090 he      1  lig       0.252800
     35 H_0y         15.6837  -15.4790   23.6232 hf      1  lig       0.252800
     36 H_0z         16.1247  -16.0522   22.1464 hg      1  lig       0.252800
     37 H_10         17.4587  -14.4914   25.2462 hh      1  lig       0.102100
     38 H_11         18.0854  -16.1036   25.1053 hi      1  lig       0.102100
     39 H_12         14.7425   -9.1642   19.9392 hj      1  lig       0.118800
     40 H_13         14.4054  -10.7643   19.3193 hk      1  lig       0.118800
     41 H_14         20.1632  -14.1035   22.1724 hl      1  lig       0.058500
     42 H_15         19.3599  -14.7477   20.7373 hm      1  lig       0.058500
     43 H_16         18.9902  -12.6794   25.5932 hq      1  lig       0.160600
     44 H_17         13.1151  -12.3914   20.7737 hr      1  lig       0.153900
     45 H_18         21.2718  -11.8120   25.7585 ht      1  lig       0.159300
     46 H_19         11.3295  -12.5741   22.5024 hu      1  lig       0.170000
     47 H_1a         23.2097  -13.2677   25.1383 hv      1  lig       0.142900
     48 H_1b         22.8078  -15.6009   24.3847 hy      1  lig       0.155000
     49 Cl1c         12.1062   -8.0755   24.2428 a0      1  lig      -0.105800
     50 H_1d         20.4886  -16.4600   24.1662 hz      1  lig       0.120800
     51 H_1e         13.9512   -8.3702   22.0898 hA      1  lig       0.080600
     52 H_1f         10.8471  -10.6549   24.0065 hB      1  lig       0.154300
@<TRIPOS>BOND
     1     1     2    1
     2     1    14    1
     3     1     3    1
     4     2     5    1
     5     2     7    1
     6     2    27    1
     7     3     8    1
     8     3     4    2
     9     5     6    2
    10     5     9    1
    11     7    10    1
    12     7    28    1
    13     7    29    1
    14     8    11    1
    15     8    12    1
    16     8    30    1
    17     9    13    1
    18     9    31    1
    19    10    14    1
    20    10    32    1
    21    10    33    1
    22    11    34    1
    23    11    35    1
    24    11    36    1
    25    12    15    1
    26    12    37    1
    27    12    38    1
    28    13    16    1
    29    13    39    1
    30    13    40    1
    31    14    41    1
    32    14    42    1
    33    15    17    2
    34    15    25    1
    35    16    18    2
    36    16    26    1
    37    17    19    1
    38    17    43    1
    39    18    20    1
    40    18    44    1
    41    19    21    2
    42    19    45    1
    43    20    22    2
    44    20    46    1
    45    21    23    1
    46    21    47    1
    47    22    24    1
    48    22    52    1
    49    23    25    2
    50    23    48    1
    51    24    26    2
    52    24    49    1
    53    25    50    1
    54    26    51    1
