@<TRIPOS>MOLECULE
lig
  52   54 0 0 0
SMALL
NO_CHARGES


@<TRIPOS>ATOM
      1 N_00         18.2567  -13.2370   21.7047 n0      1  lig       0.003400
      2 C_01         18.0563  -11.9400   21.0292 c4      1  lig      -0.018500
      3 C_02         17.3896  -13.7779   22.5952 c5      1  lig       0.068300
      4 O_03         16.3917  -13.1666   22.9805 o0      1  lig      -0.426200
      5 C_04         16.6512  -11.7486   20.4074 c6      1  lig       0.340700
      6 O_05         16.1521  -12.6411   19.7201 o1      1  lig      -0.466900
      7 C_06         19.1524  -11.8879   19.9553 c7      1  lig      -0.199600
      8 C_07         17.6454  -15.1784   23.1855 c8      1  lig       0.155200
      9 N_08         16.0303  -10.5893   20.6541 ng      1  lig      -0.354100
     10 C_09         20.2529  -12.8095   20.4423 c9      1  lig      -0.000500
     11 N_0a         16.4042  -15.9674   23.1089 nr      1  lig      -0.174600
     12 C_0b         18.1324  -15.1110   24.6516 cb      1  lig      -0.203500
     13 C_0c         14.6909  -10.2121   20.2216 ci      1  lig      -0.064100
     14 C_0d         19.5366  -13.8367   21.3109 cj      1  lig      -0.002800
     15 C_0e         19.5574  -14.6140   24.8234 ck      1  lig       0.029300
     16 C_0f         13.6305  -10.3468   21.3020 cm      1  lig       0.033900
     17 C_0g         19.8009  -13.3110   25.2946 cn      1  lig      -0.103000
     18 C_0h         12.8881  -11.5388   21.4361 co      1  lig      -0.183200
     19 C_0i         21.1106  -12.8184   25.4002 cq      1  lig      -0.190600
     20 C_0j         11.8799  -11.6379   22.4174 cr      1  lig      -0.136900
     21 C_0k         22.1968  -13.6402   25.0518 cs      1  lig      -0.075300
     22 C_0l         11.6148  -10.5494   23.2729 ct      1  lig      -0.079700
     23 C_0m         21.9671  -14.9595   24.6177 cw      1  lig      -0.159900
     24 C_0n         12.3735   -9.3681   23.1621 cA      1  lig      -0.097800
     25 C_0o         20.6499  -15.4468   24.5018 cB      1  lig      -0.135600
     26 C_0p         13.3715   -9.2675   22.1733 cC      1  lig       0.038200
     27 H_0q         18.2374  -11.1573   21.7653 h0      1  lig       0.123500
     28 H_0r         18.7803  -12.2424   18.9923 h6      1  lig       0.109000
     29 H_0s         19.5264  -10.8796   19.8178 h7      1  lig       0.109000
     30 H_0t         18.3731  -15.7311   22.5934 h8      1  lig       0.100800
     31 H_0u         16.5517   -9.8879   21.1798 h9      1  lig       0.316800
     32 H_0v         20.8191  -13.2644   19.6280 hb      1  lig       0.049100
     33 H_0w         20.9575  -12.2457   21.0555 hd      1  lig       0.049100
     34 H_0x         16.5487  -16.8835   23.5056 he      1  lig       0.248500
     35 H_0y         15.6795  -15.4794   23.6220 hf      1  lig       0.248500
     36 H_0z         16.1194  -16.0508   22.1442 hg      1  lig       0.248500
     37 H_10         17.4555  -14.4917   25.2441 hh      1  lig       0.113700
     38 H_11         18.0825  -16.1035   25.1011 hi      1  lig       0.113700
     39 H_12         14.7289   -9.1614   19.9406 hj      1  lig       0.118900
     40 H_13         14.3887  -10.7636   19.3291 hk      1  lig       0.118900
     41 H_14         20.1554  -14.0995   22.1675 hl      1  lig       0.053200
     42 H_15         19.3507  -14.7429   20.7328 hm      1  lig       0.053200
     43 H_16         18.9872  -12.6824   25.5984 hq      1  lig       0.160400
     44 H_17         13.0911  -12.3786   20.7858 hr      1  lig       0.156000
     45 H_18         21.2684  -11.8147   25.7648 ht      1  lig       0.162200
     46 H_19         11.3106  -12.5518   22.5207 hu      1  lig       0.166600
     47 H_1a         23.2064  -13.2675   25.1372 hv      1  lig       0.144700
     48 H_1b         22.8043  -15.5975   24.3729 hy      1  lig       0.156600
     49 Br1c         12.0950   -7.9251   24.3750 a0      1  lig      -0.067600
     50 H_1d         20.4851  -16.4562   24.1532 hz      1  lig       0.123200
     51 H_1e         13.9534   -8.3622   22.1014 hA      1  lig       0.080100
     52 H_1f         10.8447  -10.6298   24.0277 hB      1  lig       0.147200
@<TRIPOS>BOND
     1     1     2    1
     2     1    14    1
     3     1     3    1
     4     2     5    1
     5     2     7    1
     6     2    27    1
     7     3     8    1
     8     3     4    2
     9     5     6    2
    10     5     9    1
    11     7    10    1
    12     7    28    1
    13     7    29    1
    14     8    11    1
    15     8    12    1
    16     8    30    1
    17     9    13    1
    18     9    31    1
    19    10    14    1
    20    10    32    1
    21    10    33    1
    22    11    34    1
    23    11    35    1
    24    11    36    1
    25    12    15    1
    26    12    37    1
    27    12    38    1
    28    13    16    1
    29    13    39    1
    30    13    40    1
    31    14    41    1
    32    14    42    1
    33    15    17    2
    34    15    25    1
    35    16    18    2
    36    16    26    1
    37    17    19    1
    38    17    43    1
    39    18    20    1
    40    18    44    1
    41    19    21    2
    42    19    45    1
    43    20    22    2
    44    20    46    1
    45    21    23    1
    46    21    47    1
    47    22    24    1
    48    22    52    1
    49    23    25    2
    50    23    48    1
    51    24    26    2
    52    24    49    1
    53    25    50    1
    54    26    51    1
