@<TRIPOS>MOLECULE
lig
  52   54 0 0 0
SMALL
NO_CHARGES


@<TRIPOS>ATOM
      1 N_00         18.2724  -13.2441   21.7072 n0      1  lig      -0.007200
      2 C_01         18.0753  -11.9483   21.0285 c4      1  lig      -0.009200
      3 C_02         17.4016  -13.7827   22.5957 c5      1  lig       0.077500
      4 O_03         16.4030  -13.1700   22.9772 o0      1  lig      -0.428200
      5 C_04         16.6731  -11.7594   20.4013 c6      1  lig       0.322500
      6 O_05         16.1781  -12.6531   19.7125 o1      1  lig      -0.459500
      7 C_06         19.1739  -11.8989   19.9568 c7      1  lig      -0.215100
      8 C_07         17.6534  -15.1828   23.1886 c8      1  lig       0.149600
      9 N_08         16.0509  -10.6004   20.6443 ng      1  lig      -0.353800
     10 C_09         20.2726  -12.8189   20.4503 c9      1  lig       0.006500
     11 N_0a         16.4103  -15.9689   23.1123 nr      1  lig      -0.145200
     12 C_0b         18.1391  -15.1142   24.6551 cb      1  lig      -0.173400
     13 C_0c         14.7145  -10.2250   20.2026 ci      1  lig      -0.063500
     14 C_0d         19.5531  -13.8450   21.3178 cj      1  lig      -0.009600
     15 C_0e         19.5631  -14.6147   24.8265 ck      1  lig       0.025000
     16 C_0f         13.6469  -10.3699   21.2731 cm      1  lig       0.033800
     17 C_0g         20.6572  -15.4491   24.5148 cn      1  lig      -0.142200
     18 C_0h         12.9112  -11.5669   21.3982 co      1  lig      -0.168900
     19 C_0i         21.9737  -14.9613   24.6353 cq      1  lig      -0.151200
     20 C_0j         11.8983  -11.6758   22.3733 cr      1  lig      -0.154100
     21 C_0k         22.2010  -13.6398   25.0643 cs      1  lig      -0.077000
     22 C_0l         11.6219  -10.5921   23.2310 ct      1  lig      -0.030700
     23 C_0m         21.1131  -12.8168   25.4045 cw      1  lig      -0.187700
     24 C_0n         12.3743   -9.4058   23.1282 cA      1  lig      -0.163300
     25 C_0o         19.8041  -13.3100   25.2945 cB      1  lig      -0.108500
     26 C_0p         13.3767   -9.2950   22.1455 cC      1  lig       0.044300
     27 H_0q         18.2537  -11.1637   21.7634 h0      1  lig       0.125600
     28 H_0r         18.8042  -12.2583   18.9947 h6      1  lig       0.113700
     29 H_0s         19.5472  -10.8908   19.8140 h7      1  lig       0.113700
     30 H_0t         18.3806  -15.7377   22.5980 h8      1  lig       0.094600
     31 H_0u         16.5668   -9.8981   21.1739 h9      1  lig       0.321800
     32 H_0v         20.8421  -13.2750   19.6390 hb      1  lig       0.048000
     33 H_0w         20.9743  -12.2534   21.0652 hd      1  lig       0.048000
     34 H_0x         16.5521  -16.8846   23.5108 he      1  lig       0.242200
     35 H_0y         15.6862  -15.4781   23.6239 hf      1  lig       0.242200
     36 H_0z         16.1261  -16.0532   22.1476 hg      1  lig       0.242200
     37 H_10         17.4612  -14.4952   25.2468 hh      1  lig       0.104400
     38 H_11         18.0904  -16.1065   25.1051 hi      1  lig       0.104400
     39 H_12         14.7520   -9.1718   19.9317 hj      1  lig       0.118100
     40 H_13         14.4212  -10.7708   19.3037 hk      1  lig       0.118100
     41 H_14         20.1692  -14.1076   22.1763 hl      1  lig       0.057400
     42 H_15         19.3681  -14.7514   20.7399 hm      1  lig       0.057400
     43 H_16         20.4945  -16.4621   24.1755 hq      1  lig       0.125300
     44 H_17         13.1236  -12.4028   20.7462 hr      1  lig       0.150900
     45 H_18         22.8124  -15.6000   24.3977 ht      1  lig       0.154500
     46 H_19         11.3346  -12.5937   22.4705 hu      1  lig       0.166200
     47 H_1a         23.2098  -13.2642   25.1457 hv      1  lig       0.144600
     48 H_1b         21.2689  -11.8094   25.7595 hy      1  lig       0.162100
     49 I_1c         12.0627   -7.8307   24.4709 i0      1  lig      -0.041900
     50 H_1d         18.9889  -12.6799   25.5910 hz      1  lig       0.162900
     51 H_1e         13.9552   -8.3868   22.0794 hA      1  lig       0.075100
     52 H_1f         10.8491  -10.6816   23.9820 hB      1  lig       0.137600
@<TRIPOS>BOND
     1     1     2    1
     2     1    14    1
     3     1     3    1
     4     2     5    1
     5     2     7    1
     6     2    27    1
     7     3     8    1
     8     3     4    2
     9     5     6    2
    10     5     9    1
    11     7    10    1
    12     7    28    1
    13     7    29    1
    14     8    11    1
    15     8    12    1
    16     8    30    1
    17     9    13    1
    18     9    31    1
    19    10    14    1
    20    10    32    1
    21    10    33    1
    22    11    34    1
    23    11    35    1
    24    11    36    1
    25    12    15    1
    26    12    37    1
    27    12    38    1
    28    13    16    1
    29    13    39    1
    30    13    40    1
    31    14    41    1
    32    14    42    1
    33    15    17    2
    34    15    25    1
    35    16    18    2
    36    16    26    1
    37    17    19    1
    38    17    43    1
    39    18    20    1
    40    18    44    1
    41    19    21    2
    42    19    45    1
    43    20    22    2
    44    20    46    1
    45    21    23    1
    46    21    47    1
    47    22    24    1
    48    22    52    1
    49    23    25    2
    50    23    48    1
    51    24    26    2
    52    24    49    1
    53    25    50    1
    54    26    51    1
