@<TRIPOS>MOLECULE
lig
  55   57 0 0 0
SMALL
NO_CHARGES


@<TRIPOS>ATOM
      1 N_00         18.3586  -13.2433   21.6782 n0      1  lig      -0.041500
      2 C_01         18.1955  -11.9531   20.9799 c4      1  lig      -0.030200
      3 C_02         17.4601  -13.7625   22.5530 c5      1  lig       0.068700
      4 O_03         16.4632  -13.1349   22.9149 o0      1  lig      -0.416900
      5 C_04         16.8176  -11.7793   20.3045 c6      1  lig       0.393700
      6 O_05         16.3847  -12.6581   19.5563 o1      1  lig      -0.483900
      7 C_06         19.3213  -11.9263   19.9342 c7      1  lig      -0.156100
      8 C_07         17.6743  -15.1650   23.1542 c8      1  lig       0.258200
      9 N_08         16.1459  -10.6550   20.5743 ng      1  lig      -0.417600
     10 C_09         20.3937  -12.8539   20.4646 c9      1  lig      -0.025000
     11 N_0a         16.4158  -15.9247   23.0599 nr      1  lig      -0.160200
     12 C_0b         18.1376  -15.1029   24.6287 cb      1  lig      -0.117600
     13 C_0c         14.8056  -10.3296   20.1078 ci      1  lig      -0.073100
     14 C_0d         19.6396  -13.8634   21.3222 cj      1  lig      -0.027600
     15 C_0e         19.5621  -14.6136   24.8242 ck      1  lig       0.023200
     16 C_0f         13.7048  -10.8483   21.0151 cm      1  lig      -0.006600
     17 C_0g         19.8032  -13.3127   25.3021 cn      1  lig      -0.109300
     18 C_0h         13.2757  -12.1872   20.9048 co      1  lig      -0.111100
     19 C_0i         21.1122  -12.8206   25.4158 cq      1  lig      -0.184500
     20 C_0j         12.2474  -12.6715   21.7347 cr      1  lig      -0.222300
     21 C_0k         22.1996  -13.6407   25.0687 cs      1  lig      -0.074900
     22 C_0l         11.6484  -11.8212   22.6817 ct      1  lig      -0.164200
     23 C_0m         21.9724  -14.9597   24.6331 cw      1  lig      -0.157900
     24 C_0n         12.0807  -10.4868   22.8072 cA      1  lig       0.048300
     25 C_0o         20.6559  -15.4473   24.5109 cB      1  lig      -0.144400
     26 C_0p         13.1054   -9.9983   21.9692 cC      1  lig      -0.100000
     27 H_0q         18.3513  -11.1579   21.7090 h0      1  lig       0.115700
     28 H_0r         18.9738  -12.2977   18.9684 h6      1  lig       0.101900
     29 H_0s         19.7085  -10.9248   19.7784 h7      1  lig       0.101900
     30 H_0t         18.3994  -15.7356   22.5759 h8      1  lig       0.047000
     31 H_0u         16.6121   -9.9542   21.1482 h9      1  lig       0.337000
     32 H_0v         20.9742  -13.3247   19.6706 hb      1  lig       0.054900
     33 H_0w         21.0870  -12.2912   21.0912 hd      1  lig       0.054900
     34 H_0x         16.5325  -16.8438   23.4588 he      1  lig       0.241100
     35 H_0y         15.6949  -15.4200   23.5622 hf      1  lig       0.241100
     36 H_0z         16.1429  -16.0014   22.0912 hg      1  lig       0.241100
     37 H_10         17.4545  -14.4794   25.2096 hh      1  lig       0.069000
     38 H_11         18.0738  -16.0956   25.0759 hi      1  lig       0.069000
     39 H_12         14.7242   -9.2447   20.0427 hj      1  lig       0.129300
     40 H_13         14.6468  -10.7188   19.1008 hk      1  lig       0.129300
     41 H_14         20.2332  -14.1270   22.1951 hl      1  lig       0.067400
     42 H_15         19.4557  -14.7713   20.7464 hm      1  lig       0.067400
     43 H_16         18.9874  -12.6835   25.5989 hq      1  lig       0.157600
     44 H_17         13.7415  -12.8460   20.1858 hr      1  lig       0.134000
     45 H_18         21.2679  -11.8171   25.7811 ht      1  lig       0.159500
     46 H_19         11.9202  -13.6985   21.6578 hu      1  lig       0.170500
     47 H_1a         23.2085  -13.2665   25.1547 hv      1  lig       0.143500
     48 H_1b         22.8108  -15.5961   24.3898 hy      1  lig       0.156600
     49 H_1c         20.4927  -16.4552   24.1578 hz      1  lig       0.124500
     50 H_1d         13.4444   -8.9775   22.0683 hA      1  lig       0.127000
     51 H_1e         10.8638  -12.2037   23.3202 hB      1  lig       0.145800
     52 C_1f         11.4642   -9.6050   23.8704 cD      1  lig      -0.124600
     53 H_1g         11.7626   -8.5635   23.7535 hC      1  lig       0.056800
     54 H_1h         10.3771   -9.6708   23.8407 hD      1  lig       0.056800
     55 H_1i         11.7848   -9.9408   24.8546 hE      1  lig       0.056800
@<TRIPOS>BOND
     1     1     2    1
     2     1    14    1
     3     1     3    1
     4     2     5    1
     5     2     7    1
     6     2    27    1
     7     3     8    1
     8     3     4    2
     9     5     6    2
    10     5     9    1
    11     7    10    1
    12     7    28    1
    13     7    29    1
    14     8    11    1
    15     8    12    1
    16     8    30    1
    17     9    13    1
    18     9    31    1
    19    10    14    1
    20    10    32    1
    21    10    33    1
    22    11    34    1
    23    11    35    1
    24    11    36    1
    25    12    15    1
    26    12    37    1
    27    12    38    1
    28    13    16    1
    29    13    39    1
    30    13    40    1
    31    14    41    1
    32    14    42    1
    33    15    17    2
    34    15    25    1
    35    16    18    2
    36    16    26    1
    37    17    19    1
    38    17    43    1
    39    18    20    1
    40    18    44    1
    41    19    21    2
    42    19    45    1
    43    20    22    2
    44    20    46    1
    45    21    23    1
    46    21    47    1
    47    22    24    1
    48    22    51    1
    49    23    25    2
    50    23    48    1
    51    24    26    2
    52    24    52    1
    53    25    49    1
    54    26    50    1
    55    52    53    1
    56    52    54    1
    57    52    55    1
