@<TRIPOS>MOLECULE
lig
  58   60 0 0 0
SMALL
NO_CHARGES


@<TRIPOS>ATOM
      1 N_00         18.2837  -13.2167   21.6711 n0      1  lig      -0.042300
      2 C_01         18.1069  -11.9189   20.9899 c4      1  lig      -0.027600
      3 C_02         17.4006  -13.7476   22.5524 c5      1  lig       0.083200
      4 O_03         16.4058  -13.1272   22.9305 o0      1  lig      -0.416800
      5 C_04         16.7158  -11.7247   20.3399 c6      1  lig       0.410000
      6 O_05         16.2540  -12.5979   19.6030 o1      1  lig      -0.491800
      7 C_06         19.2212  -11.8811   19.9329 c7      1  lig      -0.153400
      8 C_07         17.6347  -15.1514   23.1434 c8      1  lig       0.180500
      9 N_08         16.0668  -10.5871   20.6174 ng      1  lig      -0.427100
     10 C_09         20.3031  -12.8141   20.4369 c9      1  lig      -0.026500
     11 N_0a         16.3852  -15.9256   23.0521 nr      1  lig      -0.119100
     12 C_0b         18.1081  -15.0916   24.6149 cb      1  lig      -0.055400
     13 C_0c         14.7238  -10.2228   20.1805 ci      1  lig      -0.061900
     14 C_0d         19.5622  -13.8312   21.2959 cj      1  lig      -0.023500
     15 C_0e         19.5374  -14.6118   24.8032 ck      1  lig       0.008700
     16 C_0f         13.6222  -10.7255   21.0990 cm      1  lig      -0.006200
     17 C_0g         19.7921  -13.3153   25.2875 cn      1  lig      -0.116600
     18 C_0h         13.0747   -9.8945   22.1043 co      1  lig      -0.126900
     19 C_0i         21.1061  -12.8369   25.4050 cq      1  lig      -0.175200
     20 C_0j         12.0629  -10.3884   22.9643 cr      1  lig      -0.011800
     21 C_0k         22.1857  -13.6674   25.0566 cs      1  lig      -0.077400
     22 C_0l         11.5859  -11.7025   22.7805 ct      1  lig      -0.136400
     23 C_0m         21.9450  -14.9812   24.6113 cw      1  lig      -0.158900
     24 C_0n         12.1277  -12.5291   21.7812 cA      1  lig      -0.229500
     25 C_0o         20.6234  -15.4537   24.4832 cB      1  lig      -0.135000
     26 C_0p         13.1479  -12.0435   20.9456 cC      1  lig      -0.094100
     27 H_0q         18.2787  -11.1344   21.7266 h0      1  lig       0.115900
     28 H_0r         18.8614  -12.2338   18.9646 h6      1  lig       0.100000
     29 H_0s         19.6100  -10.8785   19.7968 h7      1  lig       0.100000
     30 H_0t         18.3615  -15.7122   22.5580 h8      1  lig       0.061100
     31 H_0u         16.5622   -9.8958   21.1794 h9      1  lig       0.334800
     32 H_0v         20.8744  -13.2769   19.6309 hb      1  lig       0.054500
     33 H_0w         21.0054  -12.2575   21.0592 hd      1  lig       0.054500
     34 H_0x         16.5154  -16.8455   23.4447 he      1  lig       0.238300
     35 H_0y         15.6617  -15.4323   23.5622 hf      1  lig       0.238300
     36 H_0z         16.1072  -15.9998   22.0847 hg      1  lig       0.238300
     37 H_10         17.4321  -14.4653   25.2010 hh      1  lig       0.054500
     38 H_11         18.0416  -16.0842   25.0622 hi      1  lig       0.054500
     39 H_12         14.6655   -9.1359   20.1194 hj      1  lig       0.126300
     40 H_13         14.5403  -10.6032   19.1745 hk      1  lig       0.126300
     41 H_14         20.1661  -14.0999   22.1609 hl      1  lig       0.066800
     42 H_15         19.3741  -14.7354   20.7158 hm      1  lig       0.066800
     43 H_16         18.9835  -12.6802   25.5913 hq      1  lig       0.161400
     44 H_17         13.4616   -8.8945   22.2257 hr      1  lig       0.144500
     45 H_18         21.2725  -11.8372   25.7775 ht      1  lig       0.157000
     46 H_19         23.1985  -13.3054   25.1500 hu      1  lig       0.143600
     47 H_1a         22.7770  -15.6258   24.3660 hv      1  lig       0.156000
     48 H_1b         11.7679  -13.5422   21.6724 hy      1  lig       0.165000
     49 H_1c         20.4505  -16.4585   24.1250 hz      1  lig       0.122000
     50 H_1d         13.5747  -12.6868   20.1893 hA      1  lig       0.128300
     51 H_1e         10.8150  -12.0976   23.4283 hB      1  lig       0.148100
     52 C_1f         11.5078   -9.6034   24.1479 cD      1  lig      -0.076900
     53 H_1g         11.6961  -10.2111   25.0299 hC      1  lig       0.066400
     54 H_1h         10.4220   -9.5550   24.0585 hD      1  lig       0.066400
     55 C_1i         12.0810   -8.1961   24.3903 cE      1  lig      -0.038400
     56 H_1j         11.7103   -7.4962   23.6679 hE      1  lig       0.018900
     57 H_1k         11.7719   -7.8011   25.3536 hF      1  lig       0.018900
     58 H_1l         13.1666   -8.1549   24.3557 hG      1  lig       0.018900
@<TRIPOS>BOND
     1     1     2    1
     2     1    14    1
     3     1     3    1
     4     2     5    1
     5     2     7    1
     6     2    27    1
     7     3     8    1
     8     3     4    2
     9     5     6    2
    10     5     9    1
    11     7    10    1
    12     7    28    1
    13     7    29    1
    14     8    11    1
    15     8    12    1
    16     8    30    1
    17     9    13    1
    18     9    31    1
    19    10    14    1
    20    10    32    1
    21    10    33    1
    22    11    34    1
    23    11    35    1
    24    11    36    1
    25    12    15    1
    26    12    37    1
    27    12    38    1
    28    13    16    1
    29    13    39    1
    30    13    40    1
    31    14    41    1
    32    14    42    1
    33    15    17    2
    34    15    25    1
    35    16    18    2
    36    16    26    1
    37    17    19    1
    38    17    43    1
    39    18    20    1
    40    18    44    1
    41    19    21    2
    42    19    45    1
    43    20    22    2
    44    20    52    1
    45    21    23    1
    46    21    46    1
    47    22    24    1
    48    22    51    1
    49    23    25    2
    50    23    47    1
    51    24    26    2
    52    24    48    1
    53    25    49    1
    54    26    50    1
    55    52    53    1
    56    52    54    1
    57    52    55    1
    58    55    56    1
    59    55    57    1
    60    55    58    1
