@<TRIPOS>MOLECULE
lig
  52   54 0 0 0
SMALL
NO_CHARGES


@<TRIPOS>ATOM
      1 N_00         18.3833  -13.2487   21.6777 n0      1  lig      -0.054700
      2 C_01         18.2278  -11.9595   20.9752 c4      1  lig      -0.013600
      3 C_02         17.4784  -13.7664   22.5477 c5      1  lig       0.154500
      4 O_03         16.4768  -13.1400   22.8994 o0      1  lig      -0.450900
      5 C_04         16.8531  -11.7833   20.2962 c6      1  lig       0.606100
      6 O_05         16.4281  -12.6525   19.5327 o1      1  lig      -0.598700
      7 C_06         19.3563  -11.9389   19.9323 c7      1  lig      -0.095100
      8 C_07         17.6879  -15.1677   23.1537 c8      1  lig       0.178000
      9 N_08         16.1691  -10.6729   20.5899 ng      1  lig      -0.462700
     10 C_09         20.4245  -12.8650   20.4723 c9      1  lig      -0.012900
     11 N_0a         16.4280  -15.9253   23.0586 nr      1  lig      -0.278800
     12 C_0b         18.1459  -15.1031   24.6296 cb      1  lig      -0.097600
     13 C_0c         14.8261  -10.3435   20.1328 ci      1  lig      -0.076800
     14 C_0d         19.6649  -13.8715   21.3288 cj      1  lig      -0.025600
     15 C_0e         19.5691  -14.6122   24.8281 ck      1  lig       0.016500
     16 C_0f         13.7216  -10.7958   21.0762 cm      1  lig       0.032000
     17 C_0g         19.8071  -13.3109   25.3061 cn      1  lig      -0.121000
     18 C_0h         12.8500   -9.8475   21.6537 co      1  lig      -0.151800
     19 C_0i         21.1149  -12.8161   25.4203 cq      1  lig      -0.171600
     20 C_0j         11.8084  -10.2645   22.5058 cr      1  lig      -0.158900
     21 C_0k         22.2043  -13.6341   25.0731 cs      1  lig      -0.075100
     22 C_0l         11.6256  -11.6332   22.7778 ct      1  lig      -0.088300
     23 C_0m         21.9802  -14.9539   24.6379 cw      1  lig      -0.165900
     24 C_0n         12.4938  -12.5824   22.2070 cA      1  lig      -0.173600
     25 C_0o         20.6648  -15.4443   24.5158 cB      1  lig      -0.128600
     26 C_0p         13.5398  -12.1656   21.3620 cC      1  lig      -0.114900
     27 H_0q         18.3841  -11.1629   21.7027 h0      1  lig       0.093700
     28 H_0r         19.0117  -12.3169   18.9680 h6      1  lig       0.065700
     29 H_0s         19.7448  -10.9387   19.7693 h7      1  lig       0.065700
     30 H_0t         18.4137  -15.7409   22.5791 h8      1  lig       0.055100
     31 H_0u         16.6314   -9.9767   21.1728 h9      1  lig       0.306200
     32 H_0v         21.0079  -13.3389   19.6825 hb      1  lig       0.048500
     33 H_0w         21.1150  -12.3008   21.1005 hd      1  lig       0.048500
     34 H_0x         16.5428  -16.8438   23.4593 he      1  lig       0.297200
     35 H_0y         15.7072  -15.4188   23.5592 hf      1  lig       0.297200
     36 H_0z         16.1568  -16.0037   22.0896 hg      1  lig       0.297200
     37 H_10         17.4605  -14.4793   25.2074 hh      1  lig       0.071700
     38 H_11         18.0818  -16.0952   25.0780 hi      1  lig       0.071700
     39 H_12         14.7758   -9.2606   20.0240 hj      1  lig       0.116500
     40 H_13         14.6390  -10.7685   19.1451 hk      1  lig       0.116500
     41 H_14         20.2544  -14.1337   22.2048 hl      1  lig       0.059500
     42 H_15         19.4825  -14.7805   20.7542 hm      1  lig       0.059500
     43 H_16         18.9898  -12.6833   25.6026 hq      1  lig       0.154600
     44 H_17         12.9733   -8.7971   21.4417 hr      1  lig       0.141200
     45 H_18         21.2679  -11.8121   25.7857 ht      1  lig       0.157800
     46 H_19         11.1429   -9.5393   22.9496 hu      1  lig       0.153300
     47 H_1a         23.2123  -13.2576   25.1589 hv      1  lig       0.143000
     48 H_1b         22.8202  -15.5886   24.3944 hy      1  lig       0.156800
     49 H_1c         12.3607  -13.6325   22.4239 hz      1  lig       0.155100
     50 H_1d         20.5038  -16.4527   24.1624 hA      1  lig       0.124600
     51 H_1e         14.2011  -12.9039   20.9321 hB      1  lig       0.129900
     52 H_1f         10.8208  -11.9584   23.4233 hC      1  lig       0.143300
@<TRIPOS>BOND
     1     1     2    1
     2     1    14    1
     3     1     3    1
     4     2     5    1
     5     2     7    1
     6     2    27    1
     7     3     8    1
     8     3     4    2
     9     5     6    2
    10     5     9    1
    11     7    10    1
    12     7    28    1
    13     7    29    1
    14     8    11    1
    15     8    12    1
    16     8    30    1
    17     9    13    1
    18     9    31    1
    19    10    14    1
    20    10    32    1
    21    10    33    1
    22    11    34    1
    23    11    35    1
    24    11    36    1
    25    12    15    1
    26    12    37    1
    27    12    38    1
    28    13    16    1
    29    13    39    1
    30    13    40    1
    31    14    41    1
    32    14    42    1
    33    15    17    2
    34    15    25    1
    35    16    18    2
    36    16    26    1
    37    17    19    1
    38    17    43    1
    39    18    20    1
    40    18    44    1
    41    19    21    2
    42    19    45    1
    43    20    22    2
    44    20    46    1
    45    21    23    1
    46    21    47    1
    47    22    24    1
    48    22    52    1
    49    23    25    2
    50    23    48    1
    51    24    26    2
    52    24    49    1
    53    25    50    1
    54    26    51    1
