@<TRIPOS>MOLECULE
lig
  52   54 0 0 0
SMALL
NO_CHARGES


@<TRIPOS>ATOM
      1 N_00         18.2157  -13.2003   21.6863 n0      1  lig      -0.052900
      2 C_01         18.0087  -11.9014   21.0167 c4      1  lig       0.013000
      3 C_02         17.3504  -13.7474   22.5740 c5      1  lig       0.102400
      4 O_03         16.3550  -13.1366   22.9677 o0      1  lig      -0.410200
      5 C_04         16.6062  -11.7346   20.3818 c6      1  lig       0.479800
      6 O_05         16.1572  -12.6195   19.6529 o1      1  lig      -0.539700
      7 C_06         19.1142  -11.8355   19.9533 c7      1  lig      -0.067300
      8 C_07         17.6071  -15.1533   23.1501 c8      1  lig       0.218300
      9 N_08         15.9284  -10.6140   20.6664 ng      1  lig      -0.441800
     10 C_09         20.2121  -12.7673   20.4270 c9      1  lig      -0.009100
     11 N_0a         16.3676  -15.9435   23.0624 nr      1  lig      -0.449300
     12 C_0b         18.0947  -15.1005   24.6172 cb      1  lig      -0.112500
     13 C_0c         14.5615  -10.3074   20.2469 ci      1  lig      -0.013900
     14 C_0d         19.4961  -13.7972   21.2906 cj      1  lig      -0.003200
     15 C_0e         19.5224  -14.6112   24.7960 ck      1  lig       0.013800
     16 C_0f         13.5216  -10.3907   21.3623 cm      1  lig       0.060600
     17 C_0g         19.7728  -13.3212   25.2992 cn      1  lig      -0.112400
     18 C_0h         12.7061  -11.5351   21.5535 co      1  lig      -0.022200
     19 C_0i         21.0848  -12.8362   25.4155 cq      1  lig      -0.168500
     20 C_0j         11.7284  -11.5437   22.5691 cr      1  lig      -0.113000
     21 C_0k         22.1672  -13.6542   25.0464 cs      1  lig      -0.080100
     22 C_0l         11.5492  -10.4209   23.3986 ct      1  lig      -0.047500
     23 C_0m         21.9309  -14.9609   24.5786 cw      1  lig      -0.160600
     24 C_0n         12.3658   -9.2886   23.2270 cA      1  lig      -0.057200
     25 C_0o         20.6114  -15.4396   24.4521 cB      1  lig      -0.127200
     26 C_0p         13.3428   -9.2754   22.2113 cC      1  lig      -0.067300
     27 H_0q         18.1730  -11.1184   21.7562 h0      1  lig       0.090500
     28 H_0r         18.7508  -12.1659   18.9784 h6      1  lig       0.058100
     29 H_0s         19.4937  -10.8268   19.8451 h7      1  lig       0.058100
     30 H_0t         18.3351  -15.7000   22.5532 h8      1  lig       0.058100
     31 H_0u         16.4243   -9.9023   21.2009 h9      1  lig       0.314000
     32 H_0v         20.7720  -13.2186   19.6062 hb      1  lig       0.043400
     33 H_0w         20.9234  -12.2129   21.0409 hd      1  lig       0.043400
     34 H_0x         16.5136  -16.8648   23.4463 he      1  lig       0.345600
     35 H_0y         15.6419  -15.4639   23.5823 hf      1  lig       0.345600
     36 H_0z         16.0827  -16.0137   22.0966 hg      1  lig       0.345600
     37 H_10         17.4195  -14.4847   25.2152 hh      1  lig       0.078000
     38 H_11         18.0410  -16.0970   25.0572 hi      1  lig       0.078000
     39 H_12         14.5615   -9.2765   19.8995 hj      1  lig       0.103600
     40 H_13         14.2593  -10.9054   19.3856 hk      1  lig       0.103600
     41 H_14         20.1147  -14.0626   22.1463 hl      1  lig       0.053500
     42 H_15         19.3114  -14.7010   20.7086 hm      1  lig       0.053500
     43 H_16         18.9623  -12.6976   25.6212 hq      1  lig       0.147700
     44 Cl17         12.8565  -12.9335   20.5533 a0      1  lig      -0.099100
     45 H_18         21.2481  -11.8420   25.8042 hr      1  lig       0.157400
     46 H_19         11.1072  -12.4173   22.7110 ht      1  lig       0.157800
     47 H_1a         23.1789  -13.2889   25.1412 hu      1  lig       0.143500
     48 H_1b         22.7647  -15.5963   24.3164 hv      1  lig       0.154500
     49 Cl1c         12.1952   -7.9330   24.2824 a1      1  lig      -0.066800
     50 H_1d         20.4423  -16.4395   24.0787 hy      1  lig       0.124200
     51 H_1e         13.9669   -8.4033   22.0925 hz      1  lig       0.124100
     52 H_1f         10.7951  -10.4367   24.1734 hA      1  lig       0.152100
@<TRIPOS>BOND
     1     1     2    1
     2     1    14    1
     3     1     3    1
     4     2     5    1
     5     2     7    1
     6     2    27    1
     7     3     8    1
     8     3     4    2
     9     5     6    2
    10     5     9    1
    11     7    10    1
    12     7    28    1
    13     7    29    1
    14     8    11    1
    15     8    12    1
    16     8    30    1
    17     9    13    1
    18     9    31    1
    19    10    14    1
    20    10    32    1
    21    10    33    1
    22    11    34    1
    23    11    35    1
    24    11    36    1
    25    12    15    1
    26    12    37    1
    27    12    38    1
    28    13    16    1
    29    13    39    1
    30    13    40    1
    31    14    41    1
    32    14    42    1
    33    15    17    2
    34    15    25    1
    35    16    18    2
    36    16    26    1
    37    17    19    1
    38    17    43    1
    39    18    20    1
    40    18    44    1
    41    19    21    2
    42    19    45    1
    43    20    22    2
    44    20    46    1
    45    21    23    1
    46    21    47    1
    47    22    24    1
    48    22    52    1
    49    23    25    2
    50    23    48    1
    51    24    26    2
    52    24    49    1
    53    25    50    1
    54    26    51    1
