@<TRIPOS>MOLECULE
lig
  55   57 0 0 0
SMALL
NO_CHARGES


@<TRIPOS>ATOM
      1 N_00         18.2326  -13.2133   21.6902 n0      1  lig      -0.059300
      2 C_01         18.0295  -11.9153   21.0170 c4      1  lig      -0.002800
      3 C_02         17.3649  -13.7582   22.5771 c5      1  lig       0.156800
      4 O_03         16.3644  -13.1506   22.9608 o0      1  lig      -0.448200
      5 C_04         16.6275  -11.7387   20.3833 c6      1  lig       0.589800
      6 O_05         16.1735  -12.6139   19.6444 o1      1  lig      -0.600600
      7 C_06         19.1347  -11.8556   19.9527 c7      1  lig      -0.110400
      8 C_07         17.6230  -15.1593   23.1645 c8      1  lig       0.169000
      9 N_08         15.9572  -10.6181   20.6810 ng      1  lig      -0.388600
     10 C_09         20.2327  -12.7823   20.4359 c9      1  lig      -0.014200
     11 N_0a         16.3841  -15.9514   23.0833 nr      1  lig      -0.273200
     12 C_0b         18.1081  -15.0943   24.6316 cb      1  lig      -0.109100
     13 C_0c         14.6005  -10.2793   20.2619 ci      1  lig      -0.155700
     14 C_0d         19.5144  -13.8108   21.3000 cj      1  lig      -0.040300
     15 C_0e         19.5371  -14.6090   24.8070 ck      1  lig       0.018700
     16 C_0f         13.5525  -10.3776   21.3703 cm      1  lig       0.010600
     17 C_0g         19.7917  -13.3123   25.2901 cn      1  lig      -0.113300
     18 C_0h         12.7721  -11.5442   21.5857 co      1  lig       0.061600
     19 C_0i         21.1054  -12.8312   25.4007 cq      1  lig      -0.176000
     20 C_0j         11.7792  -11.5483   22.5905 cr      1  lig      -0.252000
     21 C_0k         22.1850  -13.6592   25.0464 cs      1  lig      -0.072700
     22 C_0l         11.5701  -10.4151   23.3971 ct      1  lig      -0.040000
     23 C_0m         21.9443  -14.9725   24.6001 cw      1  lig      -0.160700
     24 C_0n         12.3694   -9.2730   23.2182 cA      1  lig      -0.045100
     25 C_0o         20.6231  -15.4476   24.4787 cB      1  lig      -0.134700
     26 C_0p         13.3447   -9.2541   22.2017 cC      1  lig      -0.092400
     27 H_0q         18.1987  -11.1319   21.7552 h0      1  lig       0.091000
     28 H_0r         18.7713  -12.1966   18.9815 h6      1  lig       0.069900
     29 H_0s         19.5119  -10.8469   19.8329 h7      1  lig       0.069900
     30 H_0t         18.3523  -15.7097   22.5722 h8      1  lig       0.060800
     31 H_0u         16.4535   -9.9185   21.2309 h9      1  lig       0.281600
     32 H_0v         20.7979  -13.2353   19.6198 hb      1  lig       0.052800
     33 H_0w         20.9390  -12.2232   21.0514 hd      1  lig       0.052800
     34 H_0x         16.5305  -16.8685   23.4768 he      1  lig       0.296500
     35 H_0y         15.6578  -15.4670   23.5979 hf      1  lig       0.296500
     36 H_0z         16.1005  -16.0317   22.1180 hg      1  lig       0.296500
     37 H_10         17.4346  -14.4699   25.2226 hh      1  lig       0.075700
     38 H_11         18.0499  -16.0861   25.0816 hi      1  lig       0.075700
     39 H_12         14.6229   -9.2395   19.9408 hj      1  lig       0.136200
     40 H_13         14.2982  -10.8463   19.3811 hk      1  lig       0.136200
     41 H_14         20.1305  -14.0741   22.1584 hl      1  lig       0.065000
     42 H_15         19.3317  -14.7162   20.7198 hm      1  lig       0.065000
     43 H_16         18.9836  -12.6796   25.5998 hq      1  lig       0.151900
     44 H_17         21.2718  -11.8319   25.7737 hr      1  lig       0.158400
     45 H_18         11.1758  -12.4294   22.7620 ht      1  lig       0.177100
     46 H_19         23.1977  -13.2959   25.1364 hu      1  lig       0.142400
     47 H_1a         22.7761  -15.6154   24.3500 hv      1  lig       0.155700
     48 Cl1b         12.1866   -7.9177   24.2734 a0      1  lig      -0.086500
     49 H_1c         20.4503  -16.4525   24.1211 hy      1  lig       0.126200
     50 H_1d         13.9540   -8.3729   22.0762 hz      1  lig       0.131900
     51 H_1e         10.8148  -10.4350   24.1703 hA      1  lig       0.149300
     52 C_1f         12.9870  -12.8115   20.7791 cD      1  lig      -0.050100
     53 H_1g         12.2300  -13.5615   21.0116 hB      1  lig       0.034800
     54 H_1h         12.9422  -12.6183   19.7085 hC      1  lig       0.034800
     55 H_1i         13.9602  -13.2416   21.0165 hD      1  lig       0.034800
@<TRIPOS>BOND
     1     1     2    1
     2     1    14    1
     3     1     3    1
     4     2     5    1
     5     2     7    1
     6     2    27    1
     7     3     8    1
     8     3     4    2
     9     5     6    2
    10     5     9    1
    11     7    10    1
    12     7    28    1
    13     7    29    1
    14     8    11    1
    15     8    12    1
    16     8    30    1
    17     9    13    1
    18     9    31    1
    19    10    14    1
    20    10    32    1
    21    10    33    1
    22    11    34    1
    23    11    35    1
    24    11    36    1
    25    12    15    1
    26    12    37    1
    27    12    38    1
    28    13    16    1
    29    13    39    1
    30    13    40    1
    31    14    41    1
    32    14    42    1
    33    15    17    2
    34    15    25    1
    35    16    18    2
    36    16    26    1
    37    17    19    1
    38    17    43    1
    39    18    20    1
    40    18    52    1
    41    19    21    2
    42    19    44    1
    43    20    22    2
    44    20    45    1
    45    21    23    1
    46    21    46    1
    47    22    24    1
    48    22    51    1
    49    23    25    2
    50    23    47    1
    51    24    26    2
    52    24    48    1
    53    25    49    1
    54    26    50    1
    55    52    53    1
    56    52    54    1
    57    52    55    1
