@<TRIPOS>MOLECULE
lig
  52   54 0 0 0
SMALL
NO_CHARGES


@<TRIPOS>ATOM
      1 N_00         18.2497  -13.2104   21.6962 n0      1  lig      -0.043700
      2 C_01         18.0488  -11.9126   21.0217 c4      1  lig      -0.026300
      3 C_02         17.3792  -13.7553   22.5811 c5      1  lig       0.125700
      4 O_03         16.3817  -13.1440   22.9691 o0      1  lig      -0.421500
      5 C_04         16.6479  -11.7402   20.3852 c6      1  lig       0.346800
      6 O_05         16.1896  -12.6294   19.6672 o1      1  lig      -0.492200
      7 C_06         19.1544  -11.8553   19.9573 c7      1  lig      -0.153200
      8 C_07         17.6313  -15.1609   23.1609 c8      1  lig       0.169700
      9 N_08         15.9835  -10.6080   20.6535 ng      1  lig      -0.345000
     10 C_09         20.2512  -12.7816   20.4429 c9      1  lig      -0.000500
     11 N_0a         16.3889  -15.9469   23.0741 nr      1  lig      -0.246600
     12 C_0b         18.1164  -15.1072   24.6285 cb      1  lig      -0.110900
     13 C_0c         14.6257  -10.2861   20.2180 ci      1  lig      -0.005400
     14 C_0d         19.5309  -13.8096   21.3059 cj      1  lig      -0.004100
     15 C_0e         19.5409  -14.6106   24.8076 ck      1  lig       0.006100
     16 C_0f         13.5701  -10.3803   21.3113 cm      1  lig      -0.029000
     17 C_0g         20.6348  -15.4379   24.4770 cn      1  lig      -0.133700
     18 C_0h         12.7537  -11.5266   21.4406 co      1  lig       0.207700
     19 C_0i         21.9515  -14.9527   24.6066 cq      1  lig      -0.159600
     20 C_0j         11.7654  -11.5815   22.4439 cr      1  lig      -0.223900
     21 C_0k         22.1796  -13.6411   25.0642 cs      1  lig      -0.076100
     22 C_0l         11.5676  -10.4862   23.3077 ct      1  lig      -0.054300
     23 C_0m         21.0922  -12.8253   25.4224 cw      1  lig      -0.186200
     24 C_0n         12.3755   -9.3399   23.1820 cA      1  lig      -0.052300
     25 C_0o         19.7830  -13.3164   25.3030 cB      1  lig      -0.101300
     26 C_0p         13.3727   -9.2906   22.1874 cC      1  lig      -0.086600
     27 H_0q         18.2159  -11.1277   21.7585 h0      1  lig       0.120500
     28 H_0r         18.7909  -12.1998   18.9874 h6      1  lig       0.094900
     29 H_0s         19.5318  -10.8473   19.8328 h7      1  lig       0.094900
     30 H_0t         18.3588  -15.7104   22.5659 h8      1  lig       0.065800
     31 H_0u         16.4831   -9.8962   21.1854 h9      1  lig       0.303800
     32 H_0v         20.8176  -13.2352   19.6279 hb      1  lig       0.045600
     33 H_0w         20.9566  -12.2225   21.0594 hd      1  lig       0.045600
     34 H_0x         16.5312  -16.8677   23.4605 he      1  lig       0.284000
     35 H_0y         15.6642  -15.4635   23.5916 hf      1  lig       0.284000
     36 H_0z         16.1051  -16.0186   22.1081 hg      1  lig       0.284000
     37 H_10         17.4379  -14.4943   25.2258 hh      1  lig       0.080400
     38 H_11         18.0667  -16.1041   25.0680 hi      1  lig       0.080400
     39 H_12         14.6345   -9.2506   19.8866 hj      1  lig       0.107700
     40 H_13         14.3280  -10.8826   19.3533 hk      1  lig       0.107700
     41 H_14         20.1464  -14.0746   22.1639 hl      1  lig       0.059700
     42 H_15         19.3469  -14.7139   20.7244 hm      1  lig       0.059700
     43 H_16         20.4719  -16.4432   24.1160 hq      1  lig       0.126000
     44 F_17         12.8930  -12.5678   20.5872 f0      1  lig      -0.186900
     45 H_18         22.7897  -15.5863   24.3539 hr      1  lig       0.155900
     46 H_19         11.1484  -12.4637   22.5428 ht      1  lig       0.182200
     47 H_1a         23.1887  -13.2680   25.1534 hu      1  lig       0.144600
     48 H_1b         21.2485  -11.8254   25.7984 hv      1  lig       0.161300
     49 Cl1c         12.1698   -8.0089   24.2632 a0      1  lig      -0.070900
     50 H_1d         18.9680  -12.6934   25.6145 hy      1  lig       0.150800
     51 H_1e         13.9932   -8.4120   22.1036 hz      1  lig       0.151800
     52 H_1f         10.8009  -10.5310   24.0689 hA      1  lig       0.162900
@<TRIPOS>BOND
     1     1     2    1
     2     1    14    1
     3     1     3    1
     4     2     5    1
     5     2     7    1
     6     2    27    1
     7     3     8    1
     8     3     4    2
     9     5     6    2
    10     5     9    1
    11     7    10    1
    12     7    28    1
    13     7    29    1
    14     8    11    1
    15     8    12    1
    16     8    30    1
    17     9    13    1
    18     9    31    1
    19    10    14    1
    20    10    32    1
    21    10    33    1
    22    11    34    1
    23    11    35    1
    24    11    36    1
    25    12    15    1
    26    12    37    1
    27    12    38    1
    28    13    16    1
    29    13    39    1
    30    13    40    1
    31    14    41    1
    32    14    42    1
    33    15    17    2
    34    15    25    1
    35    16    18    2
    36    16    26    1
    37    17    19    1
    38    17    43    1
    39    18    20    1
    40    18    44    1
    41    19    21    2
    42    19    45    1
    43    20    22    2
    44    20    46    1
    45    21    23    1
    46    21    47    1
    47    22    24    1
    48    22    52    1
    49    23    25    2
    50    23    48    1
    51    24    26    2
    52    24    49    1
    53    25    50    1
    54    26    51    1
