@<TRIPOS>MOLECULE
lig
  58   60 0 0 0
SMALL
NO_CHARGES


@<TRIPOS>ATOM
      1 N_00         18.3714  -13.1884   21.6150 n0      1  lig      -0.044800
      2 C_01         18.2376  -11.8958   20.9137 c4      1  lig      -0.005700
      3 C_02         17.4535  -13.6998   22.4744 c5      1  lig       0.125800
      4 O_03         16.4564  -13.0653   22.8232 o0      1  lig      -0.434200
      5 C_04         16.8822  -11.7251   20.1933 c6      1  lig       0.583000
      6 O_05         16.5597  -12.5203   19.3090 o1      1  lig      -0.599400
      7 C_06         19.3957  -11.8806   19.9002 c7      1  lig      -0.106500
      8 C_07         17.6438  -15.1075   23.0722 c8      1  lig       0.149400
      9 N_08         16.1070  -10.7041   20.5768 ng      1  lig      -0.406000
     10 C_09         20.4400  -12.8262   20.4504 c9      1  lig      -0.015500
     11 N_0a         16.3782  -15.8524   22.9564 nr      1  lig      -0.246600
     12 C_0b         18.0887  -15.0599   24.5536 cb      1  lig      -0.096100
     13 C_0c         14.7606  -10.4180   20.0946 ci      1  lig      -0.135500
     14 C_0d         19.6520  -13.8246   21.2876 cj      1  lig      -0.032800
     15 C_0e         19.5204  -14.6005   24.7756 ck      1  lig       0.015300
     16 C_0f         13.6484  -10.9027   21.0223 cm      1  lig      -0.001200
     17 C_0g         19.7809  -13.3155   25.2861 cn      1  lig      -0.123900
     18 C_0h         13.1225  -12.2215   20.9619 co      1  lig       0.071700
     19 C_0i         21.0968  -12.8490   25.4254 cq      1  lig      -0.168100
     20 C_0j         12.0912  -12.6033   21.8422 cr      1  lig      -0.278100
     21 C_0k         22.1731  -13.6821   25.0741 cs      1  lig      -0.079300
     22 C_0l         11.5685  -11.6941   22.7743 ct      1  lig      -0.129700
     23 C_0m         21.9269  -14.9875   24.6077 cw      1  lig      -0.160800
     24 C_0n         12.0837  -10.3888   22.8432 cA      1  lig       0.076900
     25 C_0o         20.6031  -15.4477   24.4583 cB      1  lig      -0.132000
     26 C_0p         13.1193   -9.9960   21.9695 cC      1  lig      -0.231700
     27 H_0q         18.3734  -11.0983   21.6443 h0      1  lig       0.094000
     28 H_0r         19.0784  -12.2392   18.9195 h6      1  lig       0.068500
     29 H_0s         19.8046  -10.8864   19.7618 h7      1  lig       0.068500
     30 H_0t         18.3684  -15.6849   22.5004 h8      1  lig       0.066100
     31 H_0u         16.5078  -10.0402   21.2346 h9      1  lig       0.288200
     32 H_0v         21.0275  -13.3043   19.6664 hb      1  lig       0.050800
     33 H_0w         21.1295  -12.2772   21.0928 hd      1  lig       0.050800
     34 H_0x         16.4826  -16.7785   23.3421 he      1  lig       0.290300
     35 H_0y         15.6587  -15.3490   23.4622 hf      1  lig       0.290300
     36 H_0z         16.1117  -15.9119   21.9847 hg      1  lig       0.290300
     37 H_10         17.4088  -14.4266   25.1274 hh      1  lig       0.074100
     38 H_11         17.9991  -16.0532   24.9949 hi      1  lig       0.074100
     39 H_12         14.6771   -9.3349   20.0093 hj      1  lig       0.131900
     40 H_13         14.6113  -10.7985   19.0847 hk      1  lig       0.131900
     41 H_14         20.2228  -14.0966   22.1726 hl      1  lig       0.063500
     42 H_15         19.4702  -14.7290   20.7056 hm      1  lig       0.063500
     43 H_16         18.9751  -12.6789   25.5923 hq      1  lig       0.157000
     44 H_17         21.2663  -11.8561   25.8144 hr      1  lig       0.157700
     45 H_18         11.6934  -13.6069   21.8142 ht      1  lig       0.180700
     46 H_19         23.1872  -13.3284   25.1807 hu      1  lig       0.144000
     47 H_1a         22.7565  -15.6343   24.3606 hv      1  lig       0.156000
     48 H_1b         20.4262  -16.4446   24.0808 hy      1  lig       0.125600
     49 H_1c         13.5196   -8.9948   22.0333 hz      1  lig       0.153900
     50 H_1d         10.7772  -12.0109   23.4403 hA      1  lig       0.148900
     51 C_1e         13.6358  -13.2672   19.9913 cD      1  lig      -0.042400
     52 H_1f         12.9012  -14.0601   19.8494 hB      1  lig       0.030000
     53 H_1g         13.8513  -12.8508   19.0091 hC      1  lig       0.030000
     54 H_1h         14.5410  -13.7246   20.3895 hD      1  lig       0.030000
     55 C_1i         11.5359   -9.4383   23.8829 cE      1  lig      -0.138500
     56 H_1j         11.8364   -8.4090   23.6897 hE      1  lig       0.058700
     57 H_1k         10.4482   -9.4991   23.9130 hF      1  lig       0.058700
     58 H_1l         11.8982   -9.7214   24.8678 hG      1  lig       0.058700
@<TRIPOS>BOND
     1     1     2    1
     2     1    14    1
     3     1     3    1
     4     2     5    1
     5     2     7    1
     6     2    27    1
     7     3     8    1
     8     3     4    2
     9     5     6    2
    10     5     9    1
    11     7    10    1
    12     7    28    1
    13     7    29    1
    14     8    11    1
    15     8    12    1
    16     8    30    1
    17     9    13    1
    18     9    31    1
    19    10    14    1
    20    10    32    1
    21    10    33    1
    22    11    34    1
    23    11    35    1
    24    11    36    1
    25    12    15    1
    26    12    37    1
    27    12    38    1
    28    13    16    1
    29    13    39    1
    30    13    40    1
    31    14    41    1
    32    14    42    1
    33    15    17    2
    34    15    25    1
    35    16    18    2
    36    16    26    1
    37    17    19    1
    38    17    43    1
    39    18    20    1
    40    18    51    1
    41    19    21    2
    42    19    44    1
    43    20    22    2
    44    20    45    1
    45    21    23    1
    46    21    46    1
    47    22    24    1
    48    22    50    1
    49    23    25    2
    50    23    47    1
    51    24    26    2
    52    24    55    1
    53    25    48    1
    54    26    49    1
    55    51    52    1
    56    51    53    1
    57    51    54    1
    58    55    56    1
    59    55    57    1
    60    55    58    1
