@<TRIPOS>MOLECULE
lig
  46   49 0 0 0
SMALL
NO_CHARGES


@<TRIPOS>ATOM
      1 C_00          8.2482   43.6956   49.2023 c4      1  lig       0.379201
      2 C_01          5.0583   45.5087   51.0336 c5      1  lig       0.007826
      3 C_02          4.1116   45.9335   52.1616 c6      1  lig       0.017690
      4 C_03          2.6434   45.6420   51.7806 c7      1  lig      -0.015480
      5 C_04          1.6780   46.0379   52.9087 c8      1  lig      -0.007193
      6 C_05          2.0402   45.3876   54.2573 c9      1  lig       0.005813
      7 C_06          3.5105   45.6415   54.6400 cb      1  lig      -0.017141
      8 C_07          4.4816   45.2590   53.5069 ci      1  lig       0.000575
      9 C_08          4.9844   41.1199   46.7951 cj      1  lig      -0.140204
     10 C_09          4.1198   40.9427   47.8801 ck      1  lig       0.279134
     11 C_0a          4.5771   41.2249   49.1748 cm      1  lig      -0.276891
     12 C_0b          5.8639   41.7118   49.3699 cn      1  lig      -0.047557
     13 N_0c          7.1909   44.3284   49.7713 n0      1  lig      -0.330490
     14 C_0d          7.4326   45.3385   50.6407 co      1  lig       0.309219
     15 O_0e          6.3926   45.9263   51.3326 o0      1  lig      -0.284288
     16 C_0f          8.7413   45.7530   50.8985 cq      1  lig       0.172456
     17 N_0g          9.2672   46.7071   51.7272 ng      1  lig      -0.562363
     18 N_0h         10.9139   45.6162   50.6358 nr      1  lig      -0.471229
     19 C_0i          9.7489   45.0443   50.1983 cr      1  lig       0.463727
     20 N_0j          9.5629   44.0281   49.3423 nw      1  lig      -0.655560
     21 N_0k          7.9563   42.5599   48.4378 nA      1  lig      -0.193229
     22 C_0l          6.7029   41.9452   48.2745 cs      1  lig       0.026789
     23 C_0m          6.2717   41.6063   46.9969 ct      1  lig      -0.274967
     24 O_0n          2.8510   40.4917   47.6627 o1      1  lig      -0.603750
     25 C_0o         10.5572   46.5818   51.5517 cw      1  lig       0.194970
     26 H_0p          4.7587   45.9621   50.0876 h0      1  lig       0.087646
     27 H_0q          4.9777   44.4256   50.9181 h6      1  lig       0.087646
     28 H_0r          4.2087   47.0134   52.2849 h7      1  lig       0.038885
     29 H_0s          2.5172   44.5845   51.5481 h8      1  lig       0.004061
     30 H_0t          2.3808   46.1826   50.8709 h9      1  lig       0.004061
     31 H_0u          0.6503   45.7982   52.6336 hb      1  lig       0.003097
     32 H_0v          1.7272   47.1171   53.0213 hd      1  lig       0.003097
     33 H_0w          1.8534   44.3157   54.2127 he      1  lig      -0.000585
     34 H_0x          1.3851   45.7707   55.0404 hf      1  lig      -0.000585
     35 H_0y          3.7619   45.0876   55.5447 hg      1  lig       0.006216
     36 H_0z          3.6400   46.6958   54.8872 hh      1  lig       0.006216
     37 H_10          5.4975   45.5277   53.7996 hi      1  lig       0.011411
     38 H_11          4.4806   44.1743   53.3883 hj      1  lig       0.011411
     39 H_12          4.6664   40.8919   45.7874 hk      1  lig       0.166577
     40 H_13          3.9453   41.0807   50.0384 hl      1  lig       0.152412
     41 H_14          6.1914   41.9391   50.3733 hm      1  lig       0.044661
     42 H_15         11.8641   45.3956   50.3650 hq      1  lig       0.368715
     43 H_16          8.6939   42.2476   47.8221 hr      1  lig       0.261577
     44 H_17          6.9164   41.7431   46.1492 ht      1  lig       0.174562
     45 H_18         11.3211   47.1430   52.0673 hu      1  lig       0.157903
     46 H_19          2.3872   40.4236   48.5005 hv      1  lig       0.433958
@<TRIPOS>BOND
     1     1    13    2
     2     1    20    1
     3     1    21    1
     4     2     3    1
     5     2    15    1
     6     2    26    1
     7     2    27    1
     8     3     4    1
     9     3     8    1
    10     3    28    1
    11     4     5    1
    12     4    29    1
    13     4    30    1
    14     5     6    1
    15     5    31    1
    16     5    32    1
    17     6     7    1
    18     6    33    1
    19     6    34    1
    20     7     8    1
    21     7    35    1
    22     7    36    1
    23     8    37    1
    24     8    38    1
    25     9    10    2
    26     9    23    1
    27     9    39    1
    28    10    11    1
    29    10    24    1
    30    11    12    2
    31    11    40    1
    32    12    22    1
    33    12    41    1
    34    13    14    1
    35    14    15    1
    36    14    16    2
    37    16    17    1
    38    16    19    1
    39    17    25    2
    40    18    19    1
    41    18    25    1
    42    18    42    1
    43    19    20    2
    44    21    22    1
    45    21    43    1
    46    22    23    2
    47    23    44    1
    48    24    46    1
    49    25    45    1
