@<TRIPOS>MOLECULE
lig
  49   52 0 0 0
SMALL
NO_CHARGES


@<TRIPOS>ATOM
      1 C_00          8.2482   43.6956   49.2023 c4      1  lig       0.386847
      2 C_01          5.0583   45.5087   51.0336 c5      1  lig       0.003756
      3 C_02          4.1116   45.9335   52.1616 c6      1  lig       0.014389
      4 C_03          2.6434   45.6420   51.7806 c7      1  lig      -0.017897
      5 C_04          1.6780   46.0379   52.9087 c8      1  lig      -0.004130
      6 C_05          2.0402   45.3876   54.2573 c9      1  lig       0.007671
      7 C_06          3.5105   45.6415   54.6400 cb      1  lig      -0.026020
      8 C_07          4.4816   45.2590   53.5069 ci      1  lig      -0.001806
      9 C_08          4.9844   41.1199   46.7951 cj      1  lig      -0.115423
     10 C_09          4.1198   40.9427   47.8801 ck      1  lig      -0.065716
     11 C_0a          4.5771   41.2249   49.1748 cm      1  lig      -0.153719
     12 C_0b          5.8639   41.7118   49.3699 cn      1  lig      -0.032184
     13 N_0c          1.7724   40.8766   48.4795 n0      1  lig      -0.908970
     14 N_0d          7.1909   44.3284   49.7713 ng      1  lig      -0.312194
     15 C_0e          7.4326   45.3385   50.6407 co      1  lig       0.293135
     16 O_0f          6.3926   45.9263   51.3326 o0      1  lig      -0.281743
     17 C_0g          8.7413   45.7530   50.8985 cq      1  lig       0.194223
     18 N_0h          9.2672   46.7071   51.7272 nr      1  lig      -0.559886
     19 N_0i         10.9139   45.6162   50.6358 nw      1  lig      -0.451858
     20 C_0j          9.7489   45.0443   50.1983 cr      1  lig       0.428608
     21 N_0k          9.5629   44.0281   49.3423 nA      1  lig      -0.634285
     22 N_0l          7.9563   42.5599   48.4378 nB      1  lig      -0.183045
     23 C_0m          6.7029   41.9452   48.2745 cs      1  lig       0.017977
     24 C_0n          6.2717   41.6063   46.9969 ct      1  lig      -0.211646
     25 C_0o          2.7167   40.4439   47.6397 cw      1  lig       0.710211
     26 C_0p         10.5572   46.5818   51.5517 cA      1  lig       0.187790
     27 O_0q          2.4488   39.7138   46.6874 o1      1  lig      -0.583349
     28 H_0r          4.7587   45.9621   50.0876 h0      1  lig       0.089761
     29 H_0s          4.9777   44.4256   50.9181 h6      1  lig       0.089761
     30 H_0t          4.2087   47.0134   52.2849 h7      1  lig       0.041969
     31 H_0u          2.5172   44.5845   51.5481 h8      1  lig       0.003081
     32 H_0v          2.3808   46.1826   50.8709 h9      1  lig       0.003081
     33 H_0w          0.6503   45.7982   52.6336 hb      1  lig       0.003087
     34 H_0x          1.7272   47.1171   53.0213 hd      1  lig       0.003087
     35 H_0y          1.8534   44.3157   54.2127 he      1  lig       0.001252
     36 H_0z          1.3851   45.7707   55.0404 hf      1  lig       0.001252
     37 H_10          3.7619   45.0876   55.5447 hg      1  lig       0.007928
     38 H_11          3.6400   46.6958   54.8872 hh      1  lig       0.007928
     39 H_12          5.4975   45.5277   53.7996 hi      1  lig       0.016030
     40 H_13          4.4806   44.1743   53.3883 hj      1  lig       0.016030
     41 H_14          4.6664   40.8919   45.7874 hk      1  lig       0.151175
     42 H_15          3.9453   41.0807   50.0384 hl      1  lig       0.146160
     43 H_16          6.1914   41.9391   50.3733 hm      1  lig       0.006878
     44 H_17          0.8092   40.6155   48.3278 hq      1  lig       0.383542
     45 H_18          2.0264   41.3648   49.3257 hr      1  lig       0.383542
     46 H_19         11.8641   45.3956   50.3650 ht      1  lig       0.367279
     47 H_1a          8.6939   42.2476   47.8221 hu      1  lig       0.254890
     48 H_1b          6.9164   41.7431   46.1492 hv      1  lig       0.159112
     49 H_1c         11.3211   47.1430   52.0673 hy      1  lig       0.162439
@<TRIPOS>BOND
     1     1    14    2
     2     1    21    1
     3     1    22    1
     4     2     3    1
     5     2    16    1
     6     2    28    1
     7     2    29    1
     8     3     4    1
     9     3     8    1
    10     3    30    1
    11     4     5    1
    12     4    31    1
    13     4    32    1
    14     5     6    1
    15     5    33    1
    16     5    34    1
    17     6     7    1
    18     6    35    1
    19     6    36    1
    20     7     8    1
    21     7    37    1
    22     7    38    1
    23     8    39    1
    24     8    40    1
    25     9    10    2
    26     9    24    1
    27     9    41    1
    28    10    11    1
    29    10    25    1
    30    11    12    2
    31    11    42    1
    32    12    23    1
    33    12    43    1
    34    13    25    1
    35    13    44    1
    36    13    45    1
    37    14    15    1
    38    15    16    1
    39    15    17    2
    40    17    18    1
    41    17    20    1
    42    18    26    2
    43    19    20    1
    44    19    26    1
    45    19    46    1
    46    20    21    2
    47    22    23    1
    48    22    47    1
    49    23    24    2
    50    24    48    1
    51    25    27    2
    52    26    49    1
