@<TRIPOS>MOLECULE
lig
  52   54 0 0 0
SMALL
NO_CHARGES


@<TRIPOS>ATOM
      1 N_00         16.3900  -15.7830   23.1600 n0      1  lig      -0.005088
      2 C_01         17.6570  -15.0120   23.1460 c4      1  lig       0.081144
      3 C_02         17.4360  -13.6310   22.5680 c5      1  lig       0.070281
      4 O_03         16.5060  -12.9450   23.0320 o0      1  lig      -0.405858
      5 C_04         18.1720  -14.9170   24.5950 c6      1  lig      -0.070666
      6 C_05         19.5920  -14.3710   24.7440 c7      1  lig       0.002877
      7 C_06         20.6910  -14.9640   24.0890 c8      1  lig      -0.136182
      8 C_07         19.8220  -13.2490   25.5510 c9      1  lig      -0.150214
      9 C_08         21.9860  -14.4540   24.2350 cb      1  lig      -0.155756
     10 C_09         21.1010  -12.7410   25.6970 ci      1  lig      -0.144375
     11 C_0a         22.1890  -13.3330   25.0460 cj      1  lig      -0.086228
     12 N_0b         18.2450  -13.1710   21.5890 ng      1  lig      -0.041244
     13 C_0c         18.0280  -11.8220   21.0620 ck      1  lig      -0.032965
     14 C_0d         16.6090  -11.7290   20.5280 cm      1  lig       0.417213
     15 O_0e         16.2150  -12.7280   19.9260 o1      1  lig      -0.467973
     16 C_0f         18.9440  -11.8950   19.8030 cn      1  lig      -0.100718
     17 C_0g         20.1040  -12.7670   20.3170 co      1  lig      -0.049760
     18 C_0h         19.3760  -13.9390   21.0230 cq      1  lig      -0.051976
     19 N_0i         15.9710  -10.5760   20.7540 nr      1  lig      -0.409031
     20 C_0j         14.6590  -10.4300   20.1130 cr      1  lig      -0.169103
     21 C_0k         13.5670  -10.4920   21.1900 cs      1  lig       0.029551
     22 C_0l         13.3860   -9.3970   22.0370 ct      1  lig      -0.112204
     23 C_0m         12.4020   -9.4430   23.0150 cw      1  lig      -0.127547
     24 C_0n         11.5890  -10.5670   23.1640 cA      1  lig      -0.112611
     25 C_0o         11.7790  -11.6630   22.3090 cB      1  lig      -0.186283
     26 C_0p         12.7700  -11.6130   21.3270 cC      1  lig      -0.114828
     27 H_0q         16.5577  -16.7001   23.5485 h0      1  lig       0.193537
     28 H_0r         15.7068  -15.2986   23.7245 h6      1  lig       0.193537
     29 H_0s         16.0415  -15.8761   22.2166 h7      1  lig       0.193537
     30 H_0t         18.3915  -15.5411   22.5388 h8      1  lig       0.092062
     31 H_0u         18.1124  -15.8992   25.0639 h9      1  lig       0.069464
     32 H_0v         17.4870  -14.3048   25.1816 hb      1  lig       0.069464
     33 H_0w         20.5421  -15.8291   23.4599 hd      1  lig       0.135339
     34 H_0x         18.9984  -12.7748   26.0640 he      1  lig       0.174557
     35 H_0y         22.8128  -14.9256   23.7247 hf      1  lig       0.156864
     36 H_0z         21.2704  -11.8756   26.3205 hg      1  lig       0.153115
     37 H_10         23.1825  -12.9275   25.1679 hh      1  lig       0.143625
     38 H_11         18.2931  -11.0260   21.7579 hi      1  lig       0.114942
     39 H_12         19.3198  -10.8974   19.5756 hj      1  lig       0.084601
     40 H_13         18.4200  -12.4280   19.0097 hk      1  lig       0.084601
     41 H_14         20.6780  -12.2044   21.0533 hl      1  lig       0.063642
     42 H_15         20.6675  -13.1531   19.4676 hm      1  lig       0.063642
     43 H_16         18.9933  -14.6233   20.2658 hq      1  lig       0.074169
     44 H_17         20.0003  -14.3005   21.8401 hr      1  lig       0.074169
     45 H_18         16.3965   -9.8692   21.3367 ht      1  lig       0.334382
     46 H_19         14.5114  -11.2405   19.3993 hu      1  lig       0.159464
     47 H_1a         14.6099   -9.4689   19.6011 hv      1  lig       0.159464
     48 H_1b         14.0095   -8.5218   21.9288 hy      1  lig       0.149627
     49 H_1c         12.2567   -8.6005   23.6749 hz      1  lig       0.150451
     50 H_1d         10.8269  -10.5846   23.9291 hA      1  lig       0.138592
     51 H_1e         11.1596  -12.5417   22.4117 hB      1  lig       0.157513
     52 H_1f         12.9114  -12.4595   20.6714 hC      1  lig       0.145184
@<TRIPOS>BOND
     1     1     2    1
     2     1    27    1
     3     1    28    1
     4     1    29    1
     5     2     3    1
     6     2     5    1
     7     2    30    1
     8     3     4    2
     9     3    12    1
    10     5     6    1
    11     5    31    1
    12     5    32    1
    13     6     7    2
    14     6     8    1
    15     7     9    1
    16     7    33    1
    17     8    10    2
    18     8    34    1
    19     9    11    2
    20     9    35    1
    21    10    11    1
    22    10    36    1
    23    11    37    1
    24    12    13    1
    25    12    18    1
    26    13    14    1
    27    13    16    1
    28    13    38    1
    29    14    15    2
    30    14    19    1
    31    16    17    1
    32    16    39    1
    33    16    40    1
    34    17    18    1
    35    17    41    1
    36    17    42    1
    37    18    43    1
    38    18    44    1
    39    19    20    1
    40    19    45    1
    41    20    21    1
    42    20    46    1
    43    20    47    1
    44    21    22    2
    45    21    26    1
    46    22    23    1
    47    22    48    1
    48    23    24    2
    49    23    49    1
    50    24    25    1
    51    24    50    1
    52    25    26    2
    53    25    51    1
    54    26    52    1
