@<TRIPOS>MOLECULE
lig
  51   53 0 0 0
SMALL
NO_CHARGES


@<TRIPOS>ATOM
      1 N_00         16.3682  -15.6641   23.1547 n0      1  lig       0.120882
      2 C_01         17.6466  -14.9710   23.1480 c4      1  lig       0.046417
      3 C_02         17.4276  -13.5958   22.5648 c5      1  lig       0.161390
      4 O_03         16.4819  -12.9041   22.9285 o0      1  lig      -0.418793
      5 C_04         18.1785  -14.9330   24.5831 c6      1  lig       0.029245
      6 C_05         19.5938  -14.3968   24.6566 c7      1  lig      -0.039693
      7 C_06         20.6559  -15.0524   24.0366 c8      1  lig      -0.116808
      8 C_07         19.8660  -13.2452   25.3785 c9      1  lig      -0.085201
      9 C_08         21.9461  -14.5326   24.1363 cb      1  lig      -0.169092
     10 C_09         21.1523  -12.7174   25.4703 ci      1  lig      -0.169551
     11 C_0a         22.2143  -13.3710   24.8493 cj      1  lig      -0.097134
     12 N_0b         18.2776  -13.1481   21.6558 ng      1  lig      -0.044170
     13 C_0c         18.0538  -11.8279   21.0665 ck      1  lig      -0.026913
     14 C_0d         16.7065  -11.7951   20.3870 cm      1  lig       0.348582
     15 O_0e         16.3146  -12.7340   19.6920 o1      1  lig      -0.444472
     16 C_0f         19.1870  -11.6412   20.0614 cn      1  lig      -0.056705
     17 C_0g         20.2118  -12.7237   20.3839 co      1  lig      -0.127054
     18 C_0h         19.4444  -13.8356   21.0883 cq      1  lig      -0.068171
     19 N_0i         15.9416  -10.7216   20.6139 nr      1  lig      -0.366852
     20 C_0j         14.6085  -10.5571   20.0270 cr      1  lig      -0.219608
     21 C_0k         13.5662  -11.3548   20.7768 cs      1  lig       0.052394
     22 C_0l         13.2504  -12.6554   20.3932 ct      1  lig       0.120689
     23 N_0m         12.3243  -13.3536   21.0639 nw      1  lig      -0.437262
     24 C_0n         11.6742  -12.8393   22.1168 cw      1  lig       0.125750
     25 C_0o         11.9447  -11.5469   22.5412 cA      1  lig      -0.093937
     26 C_0p         12.8989  -10.8195   21.8466 cB      1  lig       0.005045
     27 Cl0q         13.2810   -9.1672   22.3777 a0      1  lig      -0.030321
     28 H_0r         16.4883  -16.5894   23.5415 h0      1  lig       0.154408
     29 H_0s         15.7076  -15.1476   23.7178 h6      1  lig       0.154408
     30 H_0t         16.0194  -15.7374   22.2097 h7      1  lig       0.154408
     31 H_0u         18.3485  -15.5194   22.5197 h8      1  lig       0.056077
     32 H_0v         18.1486  -15.9365   25.0074 h9      1  lig       0.035310
     33 H_0w         17.5238  -14.3133   25.1959 hb      1  lig       0.035310
     34 H_0x         20.4788  -15.9610   23.4803 hd      1  lig       0.127825
     35 H_0y         19.0686  -12.7285   25.8918 he      1  lig       0.137229
     36 H_0z         22.7698  -15.0354   23.6516 hf      1  lig       0.159693
     37 H_10         21.3233  -11.8045   26.0214 hg      1  lig       0.157588
     38 H_11         23.2255  -12.9969   24.9113 hh      1  lig       0.151296
     39 H_12         18.1047  -11.0588   21.8372 hi      1  lig       0.118732
     40 H_13         19.6397  -10.6600   20.2044 hj      1  lig       0.080582
     41 H_14         18.8045  -11.7940   19.0522 hk      1  lig       0.080582
     42 H_15         20.9652  -12.3192   21.0598 hl      1  lig       0.083454
     43 H_16         20.6365  -13.1081   19.4566 hm      1  lig       0.083454
     44 H_17         19.1094  -14.5652   20.3511 hq      1  lig       0.092402
     45 H_18         20.0544  -14.2377   21.8973 hr      1  lig       0.092402
     46 H_19         16.2768   -9.9801   21.2122 ht      1  lig       0.306484
     47 H_1a         14.6291  -10.8762   18.9849 hu      1  lig       0.170855
     48 H_1b         14.3350   -9.5020   20.0381 hv      1  lig       0.170855
     49 H_1c         13.7530  -13.1070   19.5506 hy      1  lig       0.126693
     50 H_1d         10.9367  -13.4316   22.6381 hz      1  lig       0.137026
     51 H_1e         11.4179  -11.1357   23.3895 hA      1  lig       0.134270
@<TRIPOS>BOND
     1     1     2    1
     2     1    28    1
     3     1    29    1
     4     1    30    1
     5     2     3    1
     6     2     5    1
     7     2    31    1
     8     3     4    2
     9     3    12    1
    10     5     6    1
    11     5    32    1
    12     5    33    1
    13     6     7    2
    14     6     8    1
    15     7     9    1
    16     7    34    1
    17     8    10    2
    18     8    35    1
    19     9    11    2
    20     9    36    1
    21    10    11    1
    22    10    37    1
    23    11    38    1
    24    12    13    1
    25    12    18    1
    26    13    14    1
    27    13    16    1
    28    13    39    1
    29    14    15    2
    30    14    19    1
    31    16    17    1
    32    16    40    1
    33    16    41    1
    34    17    18    1
    35    17    42    1
    36    17    43    1
    37    18    44    1
    38    18    45    1
    39    19    20    1
    40    19    46    1
    41    20    21    1
    42    20    47    1
    43    20    48    1
    44    21    22    2
    45    21    26    1
    46    22    23    1
    47    22    49    1
    48    23    24    2
    49    24    25    1
    50    24    50    1
    51    25    26    2
    52    25    51    1
    53    26    27    1
