@<TRIPOS>MOLECULE
lig
  55   57 0 0 0
SMALL
NO_CHARGES


@<TRIPOS>ATOM
      1 N_00         16.4353  -15.7748   23.0436 n0      1  lig      -0.272833
      2 C_01         17.6488  -14.9812   23.1759 c4      1  lig       0.127194
      3 C_02         17.3988  -13.6226   22.5776 c5      1  lig       0.265898
      4 O_03         16.4020  -12.9795   22.8998 o0      1  lig      -0.506408
      5 C_04         18.0421  -14.8889   24.6566 c6      1  lig      -0.170644
      6 C_05         19.4694  -14.3974   24.7814 c7      1  lig      -0.028219
      7 C_06         20.5194  -15.1402   24.2490 c8      1  lig      -0.085570
      8 C_07         19.7367  -13.2081   25.4454 c9      1  lig      -0.145750
      9 C_08         21.8287  -14.6776   24.3706 cb      1  lig      -0.162478
     10 C_09         21.0409  -12.7475   25.5640 ci      1  lig      -0.110770
     11 C_0a         22.0919  -13.4853   25.0266 cj      1  lig      -0.101768
     12 N_0b         18.2883  -13.1684   21.6877 ng      1  lig      -0.105110
     13 C_0c         18.0782  -11.8618   21.0624 ck      1  lig      -0.008919
     14 C_0d         16.7560  -11.8531   20.3608 cm      1  lig       0.500571
     15 O_0e         16.4351  -12.8052   19.6542 o1      1  lig      -0.511302
     16 C_0f         19.2105  -11.7186   20.0541 cn      1  lig      -0.132710
     17 C_0g         20.2511  -12.7614   20.4430 co      1  lig       0.002726
     18 C_0h         19.5012  -13.8394   21.2097 cq      1  lig       0.025846
     19 C_0i         14.6436  -10.6523   19.9529 cr      1  lig      -0.102523
     20 C_0j         13.6559  -11.4293   20.8019 cs      1  lig       0.109436
     21 C_0k         13.4769  -12.7928   20.6267 ct      1  lig       0.004003
     22 C_0l         12.4363  -14.9111   21.1767 cw      1  lig      -0.193888
     23 C_0m         11.8768  -12.8532   22.3286 cA      1  lig      -0.004709
     24 C_0n         12.0147  -11.4918   22.5518 cB      1  lig      -0.106040
     25 C_0o         12.9123  -10.7908   21.7635 cC      1  lig       0.006288
     26 N_0p         15.9648  -10.7968   20.5552 nr      1  lig      -0.476889
     27 N_0q         12.6044  -13.4687   21.3841 nw      1  lig       0.069069
     28 Cl0r         13.1416   -9.0436   22.0077 a0      1  lig       0.055904
     29 H_0s         16.5866  -16.6910   23.4409 h0      1  lig       0.296509
     30 H_0t         15.6785  -15.3175   23.5317 h6      1  lig       0.296509
     31 H_0u         16.1977  -15.8673   22.0663 h7      1  lig       0.296509
     32 H_0v         18.4532  -15.4687   22.6250 h8      1  lig       0.095879
     33 H_0w         17.9554  -15.8729   25.1173 h9      1  lig       0.112412
     34 H_0x         17.3735  -14.1958   25.1673 hb      1  lig       0.112412
     35 H_0y         20.3188  -16.0729   23.7429 hd      1  lig       0.127583
     36 H_0z         18.9275  -12.6351   25.8735 he      1  lig       0.147873
     37 H_10         22.6443  -15.2490   23.9526 hf      1  lig       0.170863
     38 H_11         21.2406  -11.8164   26.0734 hg      1  lig       0.151960
     39 H_12         23.1086  -13.1328   25.1189 hh      1  lig       0.161103
     40 H_13         18.1236  -11.0673   21.8071 hi      1  lig       0.095920
     41 H_14         19.6465  -10.7232   20.1383 hj      1  lig       0.092974
     42 H_15         18.8350  -11.9372   19.0544 hk      1  lig       0.092974
     43 H_16         20.9954  -12.3045   21.0952 hl      1  lig       0.039301
     44 H_17         20.6851  -13.1937   19.5414 hm      1  lig       0.039301
     45 H_18         19.2242  -14.6419   20.5260 hq      1  lig       0.057333
     46 H_19         20.0989  -14.1564   22.0643 hr      1  lig       0.057333
     47 H_1a         14.3630   -9.5991   19.9421 ht      1  lig       0.139547
     48 H_1b         14.6577  -11.0645   18.9439 hu      1  lig       0.139547
     49 H_1c         14.0441  -13.3195   19.8735 hv      1  lig       0.186222
     50 H_1d         11.6922  -15.2948   21.8746 hy      1  lig       0.141486
     51 H_1e         12.1046  -15.0955   20.1549 hz      1  lig       0.141486
     52 H_1f         13.3872  -15.4163   21.3462 hA      1  lig       0.141486
     53 H_1g         11.1783  -13.4289   22.9177 hB      1  lig       0.207431
     54 H_1h         11.4314  -11.0090   23.3219 hC      1  lig       0.184540
     55 H_1i         16.2711  -10.0387   21.1480 hD      1  lig       0.333102
@<TRIPOS>BOND
     1     1     2    1
     2     1    29    1
     3     1    30    1
     4     1    31    1
     5     2     3    1
     6     2     5    1
     7     2    32    1
     8     3     4    2
     9     3    12    1
    10     5     6    1
    11     5    33    1
    12     5    34    1
    13     6     7    2
    14     6     8    1
    15     7     9    1
    16     7    35    1
    17     8    10    2
    18     8    36    1
    19     9    11    2
    20     9    37    1
    21    10    11    1
    22    10    38    1
    23    11    39    1
    24    12    13    1
    25    12    18    1
    26    13    14    1
    27    13    16    1
    28    13    40    1
    29    14    15    2
    30    14    26    1
    31    16    17    1
    32    16    41    1
    33    16    42    1
    34    17    18    1
    35    17    43    1
    36    17    44    1
    37    18    45    1
    38    18    46    1
    39    19    20    1
    40    19    26    1
    41    19    47    1
    42    19    48    1
    43    20    21    2
    44    20    25    1
    45    21    27    1
    46    21    49    1
    47    22    27    1
    48    22    50    1
    49    22    51    1
    50    22    52    1
    51    23    24    1
    52    23    27    2
    53    23    53    1
    54    24    25    2
    55    24    54    1
    56    25    28    1
    57    26    55    1
