@<TRIPOS>MOLECULE
lig
  51   53 0 0 0
SMALL
NO_CHARGES


@<TRIPOS>ATOM
      1 C_00         19.5822  -14.4302   24.6980 c4      1  lig       0.016227
      2 C_01         18.1497  -14.9424   24.6265 c5      1  lig      -0.310443
      3 C_02         17.6742  -15.0153   23.1644 c6      1  lig       0.088494
      4 N_03         16.3610  -15.7394   23.0891 n0      1  lig      -0.255397
      5 C_04         17.4484  -13.6163   22.5674 c7      1  lig       0.151432
      6 N_05         18.3163  -13.2192   21.5775 ng      1  lig       0.061597
      7 O_06         16.5308  -12.9062   23.0095 o0      1  lig      -0.487451
      8 C_07         20.6441  -15.1011   24.0802 c8      1  lig      -0.090136
      9 C_08         21.9305  -14.5940   24.1744 c9      1  lig      -0.190005
     10 C_09         22.1789  -13.4150   24.8814 cb      1  lig      -0.077112
     11 C_0a         21.1299  -12.7391   25.5012 ci      1  lig      -0.148073
     12 C_0b         19.8465  -13.2462   25.4060 cj      1  lig      -0.135009
     13 C_0c         18.1825  -11.8681   21.0047 ck      1  lig      -0.025307
     14 C_0d         16.7246  -11.7482   20.4773 cm      1  lig       0.598167
     15 O_0e         16.2411  -12.6303   19.7279 o1      1  lig      -0.519011
     16 N_0f         16.0641  -10.5808   20.7242 nr      1  lig      -0.568531
     17 C_0g         14.7391  -10.3147   20.1863 cn      1  lig      -0.146767
     18 C_0h         13.6944  -10.8749   21.0937 co      1  lig       0.013272
     19 C_0i         19.1742  -11.8549   19.8209 cq      1  lig      -0.020884
     20 C_0j         20.2190  -12.8361   20.2890 cr      1  lig      -0.020369
     21 C_0k         19.4364  -13.9710   20.9638 cs      1  lig       0.001819
     22 C_0l         12.9079  -10.0629   21.8881 ct      1  lig       0.011591
     23 N_0m         11.9454  -10.5240   22.7287 nw      1  lig      -0.272857
     24 C_0n         11.7524  -11.8611   22.7828 cw      1  lig       0.018699
     25 C_0o         12.4929  -12.7403   22.0242 cA      1  lig      -0.155700
     26 C_0p         13.4674  -12.2341   21.1787 cB      1  lig      -0.060964
     27 H_0q         17.4968  -14.2739   25.1877 h0      1  lig       0.171129
     28 H_0r         18.0960  -15.9341   25.0756 h6      1  lig       0.171129
     29 H_0s         18.4157  -15.5476   22.5687 h7      1  lig       0.103715
     30 H_0t         16.0549  -15.7835   22.1276 h8      1  lig       0.240568
     31 H_0u         16.4713  -16.6761   23.4502 h9      1  lig       0.240568
     32 H_0v         15.6720  -15.2461   23.6389 hb      1  lig       0.240568
     33 H_0w         20.4606  -16.0127   23.5310 hd      1  lig       0.122916
     34 H_0x         22.7509  -15.1111   23.6989 he      1  lig       0.165298
     35 H_0y         23.1845  -13.0269   24.9478 hf      1  lig       0.147838
     36 H_0z         21.3230  -11.8287   26.0491 hg      1  lig       0.155453
     37 H_10         19.0401  -12.7141   25.8887 hh      1  lig       0.150379
     38 H_11         18.4139  -11.0934   21.7357 hi      1  lig       0.074772
     39 H_12         16.4943   -9.8684   21.2965 hj      1  lig       0.329741
     40 H_13         14.6483  -10.7731   19.2015 hk      1  lig       0.163956
     41 H_14         14.5962   -9.2385   20.0889 hl      1  lig       0.163956
     42 H_15         19.6232  -10.8648   19.7412 hm      1  lig       0.045144
     43 H_16         18.6798  -12.2538   18.9353 hq      1  lig       0.045144
     44 H_17         20.8638  -12.3546   21.0242 hr      1  lig       0.030129
     45 H_18         20.7567  -13.2305   19.4268 ht      1  lig       0.030129
     46 H_19         19.0415  -14.6377   20.1972 hu      1  lig       0.043666
     47 H_1a         20.0487  -14.4071   21.7531 hv      1  lig       0.043666
     48 H_1b         13.0406   -8.9913   21.8634 hy      1  lig       0.165105
     49 H_1c         10.9972  -12.2717   23.4367 hz      1  lig       0.148717
     50 H_1d         12.3090  -13.8021   22.0950 hA      1  lig       0.157861
     51 H_1e         14.0527  -12.9178   20.5817 hB      1  lig       0.171171
@<TRIPOS>BOND
     1     1     2    1
     2     1     8    2
     3     1    12    1
     4     2     3    1
     5     2    27    1
     6     2    28    1
     7     3     4    1
     8     3     5    1
     9     3    29    1
    10     4    30    1
    11     4    31    1
    12     4    32    1
    13     5     6    1
    14     5     7    2
    15     6    13    1
    16     6    21    1
    17     8     9    1
    18     8    33    1
    19     9    10    2
    20     9    34    1
    21    10    11    1
    22    10    35    1
    23    11    12    2
    24    11    36    1
    25    12    37    1
    26    13    14    1
    27    13    19    1
    28    13    38    1
    29    14    15    2
    30    14    16    1
    31    16    17    1
    32    16    39    1
    33    17    18    1
    34    17    40    1
    35    17    41    1
    36    18    22    2
    37    18    26    1
    38    19    20    1
    39    19    42    1
    40    19    43    1
    41    20    21    1
    42    20    44    1
    43    20    45    1
    44    21    46    1
    45    21    47    1
    46    22    23    1
    47    22    48    1
    48    23    24    2
    49    24    25    1
    50    24    49    1
    51    25    26    2
    52    25    50    1
    53    26    51    1
