@<TRIPOS>MOLECULE
lig
  55   57 0 0 0
SMALL
NO_CHARGES


@<TRIPOS>ATOM
      1 N_00         16.2232  -15.6418   22.9325 n0      1  lig      -0.254402
      2 C_01         17.5054  -14.9590   22.9952 c4      1  lig       0.132516
      3 C_02         17.2934  -13.5729   22.4355 c5      1  lig       0.259597
      4 O_03         16.3886  -12.8719   22.8759 o0      1  lig      -0.503003
      5 C_04         17.9598  -14.9423   24.4591 c6      1  lig      -0.187951
      6 C_05         19.3729  -14.4226   24.5927 c7      1  lig      -0.019477
      7 C_06         19.6183  -13.3277   25.4078 c8      1  lig      -0.154017
      8 C_07         20.4216  -15.0296   23.9043 c9      1  lig      -0.103342
      9 C_08         20.9054  -12.8299   25.5265 cb      1  lig      -0.111314
     10 C_09         21.7137  -14.5349   24.0310 ci      1  lig      -0.138944
     11 C_0a         21.9552  -13.4310   24.8401 cj      1  lig      -0.114749
     12 N_0b         18.0882  -13.1419   21.4613 ng      1  lig      -0.079909
     13 C_0c         17.8832  -11.8028   20.8856 ck      1  lig       0.004875
     14 C_0d         16.4801  -11.6385   20.3530 cm      1  lig       0.365531
     15 O_0e         15.9517  -12.5043   19.6531 o1      1  lig      -0.460465
     16 C_0f         18.9149  -11.7238   19.7673 cn      1  lig      -0.160817
     17 C_0g         19.9658  -12.7740   20.1078 co      1  lig       0.014618
     18 C_0h         19.2019  -13.8670   20.8359 cq      1  lig       0.040614
     19 C_0i         14.4493  -10.2262   20.2708 cr      1  lig      -0.027468
     20 C_0j         13.4395  -10.8312   21.2281 cs      1  lig       0.001030
     21 C_0k         12.7829  -10.0722   22.1894 ct      1  lig      -0.016280
     22 C_0l         11.2115   -9.8112   24.0419 cw      1  lig      -0.157075
     23 C_0m         11.6158  -11.9391   22.9704 cA      1  lig      -0.018490
     24 C_0n         12.2434  -12.7451   22.0301 cB      1  lig      -0.166575
     25 C_0o         13.1702  -12.1951   21.1589 cC      1  lig       0.012120
     26 N_0p         15.8263  -10.5294   20.6974 nr      1  lig      -0.429764
     27 N_0q         11.8950  -10.6272   23.0266 nw      1  lig       0.084654
     28 H_0r         16.3213  -16.5777   23.2994 h0      1  lig       0.294319
     29 H_0s         15.5440  -15.1349   23.4818 h6      1  lig       0.294319
     30 H_0t         15.9124  -15.6880   21.9726 h7      1  lig       0.294319
     31 H_0u         18.2369  -15.4931   22.3887 h8      1  lig       0.093492
     32 H_0v         17.9042  -15.9513   24.8677 h9      1  lig       0.114886
     33 H_0w         17.2856  -14.3140   25.0411 hb      1  lig       0.114886
     34 H_0x         18.8065  -12.8645   25.9489 hd      1  lig       0.148372
     35 H_0y         20.2298  -15.8844   23.2726 he      1  lig       0.129545
     36 H_0z         21.0969  -11.9719   26.1539 hf      1  lig       0.153706
     37 H_10         22.5275  -15.0079   23.5014 hg      1  lig       0.166356
     38 H_11         22.9573  -13.0399   24.9360 hh      1  lig       0.162425
     39 H_12         18.0884  -11.0394   21.6361 hi      1  lig       0.100078
     40 H_13         19.3762  -10.7362   19.7698 hj      1  lig       0.103557
     41 H_14         18.4414  -11.9799   18.8195 hk      1  lig       0.103557
     42 H_15         20.7052  -12.3402   20.7810 hl      1  lig       0.035375
     43 H_16         20.3844  -13.1783   19.1862 hm      1  lig       0.035375
     44 H_17         18.8065  -14.5756   20.1082 hq      1  lig       0.055613
     45 H_18         19.8361  -14.2926   21.6135 hr      1  lig       0.055613
     46 H_19         14.3109   -9.1457   20.2325 ht      1  lig       0.132073
     47 H_1a         14.2836  -10.6238   19.2696 hu      1  lig       0.132073
     48 H_1b         12.9841   -9.0144   22.2723 hv      1  lig       0.181762
     49 H_1c         10.5342  -10.4408   24.6190 hy      1  lig       0.131890
     50 H_1d         11.9500   -9.3663   24.7087 hz      1  lig       0.131890
     51 H_1e         10.6429   -9.0212   23.5513 hA      1  lig       0.131890
     52 H_1f         10.9017  -12.3674   23.6582 hB      1  lig       0.210715
     53 H_1g         12.0089  -13.7981   21.9788 hC      1  lig       0.191590
     54 H_1h         13.6811  -12.8103   20.4330 hD      1  lig       0.161653
     55 H_1i         16.2752   -9.8399   21.2832 hE      1  lig       0.327158
@<TRIPOS>BOND
     1     1     2    1
     2     1    28    1
     3     1    29    1
     4     1    30    1
     5     2     3    1
     6     2     5    1
     7     2    31    1
     8     3     4    2
     9     3    12    1
    10     5     6    1
    11     5    32    1
    12     5    33    1
    13     6     7    2
    14     6     8    1
    15     7     9    1
    16     7    34    1
    17     8    10    2
    18     8    35    1
    19     9    11    2
    20     9    36    1
    21    10    11    1
    22    10    37    1
    23    11    38    1
    24    12    13    1
    25    12    18    1
    26    13    14    1
    27    13    16    1
    28    13    39    1
    29    14    15    2
    30    14    26    1
    31    16    17    1
    32    16    40    1
    33    16    41    1
    34    17    18    1
    35    17    42    1
    36    17    43    1
    37    18    44    1
    38    18    45    1
    39    19    20    1
    40    19    26    1
    41    19    46    1
    42    19    47    1
    43    20    21    2
    44    20    25    1
    45    21    27    1
    46    21    48    1
    47    22    27    1
    48    22    49    1
    49    22    50    1
    50    22    51    1
    51    23    24    1
    52    23    27    2
    53    23    52    1
    54    24    25    2
    55    24    53    1
    56    25    54    1
    57    26    55    1
