@<TRIPOS>MOLECULE
lig
  58   60 0 0 0
SMALL
NO_CHARGES


@<TRIPOS>ATOM
      1 N_00         16.3936  -15.8799   23.3121 n0      1  lig      -0.292822
      2 C_01         17.6924  -15.1716   23.3879 c4      1  lig       0.121744
      3 C_02         17.6262  -13.8107   22.7426 c5      1  lig       0.177832
      4 O_03         16.7295  -13.0490   23.0939 o0      1  lig      -0.477581
      5 C_04         18.1830  -15.0813   24.8614 c6      1  lig      -0.166092
      6 C_05         19.6151  -14.5789   24.9280 c7      1  lig      -0.017789
      7 C_06         20.6860  -15.3894   24.5401 c8      1  lig      -0.104812
      8 C_07         19.8784  -13.2901   25.3835 c9      1  lig      -0.160482
      9 C_08         21.9911  -14.9041   24.6096 cb      1  lig      -0.130985
     10 C_09         21.1755  -12.8038   25.4550 ci      1  lig      -0.114295
     11 C_0a         22.2504  -13.6143   25.0641 cj      1  lig      -0.120105
     12 N_0b         18.5190  -13.4072   21.7927 ng      1  lig      -0.018686
     13 C_0c         18.3858  -12.1022   21.1925 ck      1  lig       0.009806
     14 C_0d         17.0398  -12.0175   20.4952 cm      1  lig       0.452927
     15 O_0e         16.5942  -12.9800   19.8845 o1      1  lig      -0.501290
     16 C_0f         19.4786  -12.1739   20.0844 cn      1  lig      -0.071082
     17 C_0g         20.5400  -13.0631   20.7768 co      1  lig       0.007461
     18 C_0h         19.7018  -14.1904   21.4349 cq      1  lig       0.022755
     19 N_0i         16.4227  -10.8132   20.5676 nr      1  lig      -0.390472
     20 C_0j         15.1448  -10.7495   19.8265 cr      1  lig       0.051241
     21 C_0k         14.0381  -10.7360   20.8968 cs      1  lig       0.086098
     22 C_0l         13.6161  -11.9319   21.4638 ct      1  lig      -0.101421
     23 C_0m         12.6177  -11.9475   22.4343 cw      1  lig      -0.162520
     24 C_0n         12.0172  -10.7572   22.8558 cA      1  lig      -0.053551
     25 C_0o         10.8625  -10.7466   23.9740 cB      1  lig       0.637914
     26 N_0p         10.5697   -9.6132   24.5951 nw      1  lig      -0.783609
     27 N_0q         10.2138  -11.8517   24.2684 nA      1  lig      -0.788398
     28 C_0r         12.4502   -9.5683   22.2798 cC      1  lig      -0.115306
     29 C_0s         13.4516   -9.5446   21.3062 cD      1  lig      -0.191756
     30 H_0t         16.4768  -16.7847   23.7531 h0      1  lig       0.306636
     31 H_0u         15.6859  -15.3381   23.7871 h6      1  lig       0.306636
     32 H_0v         16.1314  -16.0006   22.3442 h7      1  lig       0.306636
     33 H_0w         18.4219  -15.7627   22.8342 h8      1  lig       0.101102
     34 H_0x         18.1219  -16.0658   25.3251 h9      1  lig       0.109973
     35 H_0y         17.5349  -14.4052   25.4189 hb      1  lig       0.109973
     36 H_0z         20.5029  -16.3931   24.1859 hd      1  lig       0.128283
     37 H_10         19.0650  -12.6487   25.6892 he      1  lig       0.156421
     38 H_11         22.8172  -15.5313   24.3086 hf      1  lig       0.161100
     39 H_12         21.3573  -11.8008   25.8118 hg      1  lig       0.154243
     40 H_13         23.2669  -13.2525   25.1112 hh      1  lig       0.160539
     41 H_14         18.5502  -11.2897   21.9003 hi      1  lig       0.079604
     42 H_15         19.8941  -11.1784   19.9279 hj      1  lig       0.059530
     43 H_16         19.0771  -12.7041   19.2209 hk      1  lig       0.059530
     44 H_17         21.0416  -12.4865   21.5540 hl      1  lig       0.031585
     45 H_18         21.1957  -13.4959   20.0212 hm      1  lig       0.031585
     46 H_19         19.4263  -14.9178   20.6713 hq      1  lig       0.048368
     47 H_1a         20.2007  -14.5145   22.3483 hr      1  lig       0.048368
     48 H_1b         16.8432  -10.0613   21.0948 ht      1  lig       0.269811
     49 H_1c         15.0398  -11.6413   19.2086 hu      1  lig       0.091363
     50 H_1d         15.1048   -9.8236   19.2528 hv      1  lig       0.091363
     51 H_1e         14.0635  -12.8644   21.1528 hy      1  lig       0.125949
     52 H_1f         12.3010  -12.8845   22.8682 hz      1  lig       0.169790
     53 H_1g          9.8459   -9.5956   25.2993 hA      1  lig       0.434784
     54 H_1h         11.0704   -8.7669   24.3642 hB      1  lig       0.434784
     55 H_1i          9.4891  -11.8398   24.9718 hC      1  lig       0.437999
     56 H_1j         10.4402  -12.7126   23.7911 hD      1  lig       0.437999
     57 H_1k         12.0100   -8.6297   22.5828 hE      1  lig       0.165024
     58 H_1l         13.7706   -8.6086   20.8723 hF      1  lig       0.176298
@<TRIPOS>BOND
     1     1     2    1
     2     1    30    1
     3     1    31    1
     4     1    32    1
     5     2     3    1
     6     2     5    1
     7     2    33    1
     8     3     4    2
     9     3    12    1
    10     5     6    1
    11     5    34    1
    12     5    35    1
    13     6     7    2
    14     6     8    1
    15     7     9    1
    16     7    36    1
    17     8    10    2
    18     8    37    1
    19     9    11    2
    20     9    38    1
    21    10    11    1
    22    10    39    1
    23    11    40    1
    24    12    13    1
    25    12    18    1
    26    13    14    1
    27    13    16    1
    28    13    41    1
    29    14    15    2
    30    14    19    1
    31    16    17    1
    32    16    42    1
    33    16    43    1
    34    17    18    1
    35    17    44    1
    36    17    45    1
    37    18    46    1
    38    18    47    1
    39    19    20    1
    40    19    48    1
    41    20    21    1
    42    20    49    1
    43    20    50    1
    44    21    22    2
    45    21    29    1
    46    22    23    1
    47    22    51    1
    48    23    24    2
    49    23    52    1
    50    24    25    1
    51    24    28    1
    52    25    26    1
    53    25    27    2
    54    26    53    1
    55    26    54    1
    56    27    55    1
    57    27    56    1
    58    28    29    2
    59    28    57    1
    60    29    58    1
