@<TRIPOS>MOLECULE
lig
  57   59 0 0 0
SMALL
NO_CHARGES


@<TRIPOS>ATOM
      1 N_00         16.3936  -15.8799   23.3121 n0      1  lig      -1.021004
      2 C_01         17.6924  -15.1716   23.3879 c4      1  lig       0.220579
      3 C_02         17.6262  -13.8107   22.7426 c5      1  lig       0.433832
      4 O_03         16.7295  -13.0490   23.0939 o0      1  lig      -0.536879
      5 C_04         18.1830  -15.0813   24.8614 c6      1  lig      -0.096025
      6 C_05         19.6151  -14.5789   24.9280 c7      1  lig      -0.010410
      7 C_06         20.6860  -15.3894   24.5401 c8      1  lig      -0.111115
      8 C_07         19.8784  -13.2901   25.3835 c9      1  lig      -0.131628
      9 C_08         21.9911  -14.9041   24.6096 cb      1  lig      -0.155712
     10 C_09         21.1755  -12.8038   25.4550 ci      1  lig      -0.124695
     11 C_0a         22.2504  -13.6143   25.0641 cj      1  lig      -0.139075
     12 N_0b         18.5190  -13.4072   21.7927 ng      1  lig      -0.173040
     13 C_0c         18.3858  -12.1022   21.1925 ck      1  lig      -0.034345
     14 C_0d         17.0398  -12.0175   20.4952 cm      1  lig       0.711023
     15 O_0e         16.5942  -12.9800   19.8845 o1      1  lig      -0.527470
     16 C_0f         19.4786  -12.1739   20.0844 cn      1  lig      -0.065858
     17 C_0g         20.5400  -13.0631   20.7768 co      1  lig       0.004644
     18 C_0h         19.7018  -14.1904   21.4349 cq      1  lig       0.001373
     19 N_0i         16.4227  -10.8132   20.5676 nr      1  lig      -0.696855
     20 C_0j         15.1448  -10.7495   19.8265 cr      1  lig       0.092366
     21 C_0k         14.0381  -10.7360   20.8968 cs      1  lig       0.014967
     22 C_0l         13.6161  -11.9319   21.4638 ct      1  lig      -0.056184
     23 C_0m         12.6177  -11.9475   22.4343 cw      1  lig      -0.181186
     24 C_0n         12.0172  -10.7572   22.8558 cA      1  lig      -0.004320
     25 C_0o         10.8625  -10.7466   23.9740 cB      1  lig       0.604409
     26 N_0p         10.5697   -9.6132   24.5951 nw      1  lig      -0.792630
     27 N_0q         10.2138  -11.8517   24.2684 nA      1  lig      -0.790895
     28 C_0r         12.4502   -9.5683   22.2798 cC      1  lig      -0.177636
     29 C_0s         13.4516   -9.5446   21.3062 cD      1  lig      -0.103199
     30 H_0t         16.4768  -16.7847   23.7531 h0      1  lig       0.394250
     31 H_0u         15.6859  -15.3381   23.7871 h6      1  lig       0.394250
     32 H_0v         18.4219  -15.7627   22.8342 h7      1  lig       0.096246
     33 H_0w         18.1219  -16.0658   25.3251 h8      1  lig       0.060285
     34 H_0x         17.5349  -14.4052   25.4189 h9      1  lig       0.060285
     35 H_0y         20.5029  -16.3931   24.1859 hb      1  lig       0.118439
     36 H_0z         19.0650  -12.6487   25.6892 hd      1  lig       0.129705
     37 H_10         22.8172  -15.5313   24.3086 he      1  lig       0.145125
     38 H_11         21.3573  -11.8008   25.8118 hf      1  lig       0.130722
     39 H_12         23.2669  -13.2525   25.1112 hg      1  lig       0.138244
     40 H_13         18.5502  -11.2897   21.9003 hh      1  lig       0.070686
     41 H_14         19.8941  -11.1784   19.9279 hi      1  lig       0.042041
     42 H_15         19.0771  -12.7041   19.2209 hj      1  lig       0.042041
     43 H_16         21.0416  -12.4865   21.5540 hk      1  lig       0.027494
     44 H_17         21.1957  -13.4959   20.0212 hl      1  lig       0.027494
     45 H_18         19.4263  -14.9178   20.6713 hm      1  lig       0.036918
     46 H_19         20.2007  -14.5145   22.3483 hq      1  lig       0.036918
     47 H_1a         16.8432  -10.0613   21.0948 hr      1  lig       0.355238
     48 H_1b         15.0398  -11.6413   19.2086 ht      1  lig       0.092340
     49 H_1c         15.1048   -9.8236   19.2528 hu      1  lig       0.092340
     50 H_1d         14.0635  -12.8644   21.1528 hv      1  lig       0.132902
     51 H_1e         12.3010  -12.8845   22.8682 hy      1  lig       0.166816
     52 H_1f          9.8459   -9.5956   25.2993 hz      1  lig       0.435631
     53 H_1g         11.0704   -8.7669   24.3642 hA      1  lig       0.435631
     54 H_1h          9.4891  -11.8398   24.9718 hB      1  lig       0.431917
     55 H_1i         10.4402  -12.7126   23.7911 hC      1  lig       0.431917
     56 H_1j         12.0100   -8.6297   22.5828 hD      1  lig       0.161047
     57 H_1k         13.7706   -8.6086   20.8723 hE      1  lig       0.160046
@<TRIPOS>BOND
     1     1     2    1
     2     1    30    1
     3     1    31    1
     4     2     3    1
     5     2     5    1
     6     2    32    1
     7     3     4    2
     8     3    12    1
     9     5     6    1
    10     5    33    1
    11     5    34    1
    12     6     7    2
    13     6     8    1
    14     7     9    1
    15     7    35    1
    16     8    10    2
    17     8    36    1
    18     9    11    2
    19     9    37    1
    20    10    11    1
    21    10    38    1
    22    11    39    1
    23    12    13    1
    24    12    18    1
    25    13    14    1
    26    13    16    1
    27    13    40    1
    28    14    15    2
    29    14    19    1
    30    16    17    1
    31    16    41    1
    32    16    42    1
    33    17    18    1
    34    17    43    1
    35    17    44    1
    36    18    45    1
    37    18    46    1
    38    19    20    1
    39    19    47    1
    40    20    21    1
    41    20    48    1
    42    20    49    1
    43    21    22    2
    44    21    29    1
    45    22    23    1
    46    22    50    1
    47    23    24    2
    48    23    51    1
    49    24    25    1
    50    24    28    1
    51    25    26    1
    52    25    27    2
    53    26    52    1
    54    26    53    1
    55    27    54    1
    56    27    55    1
    57    28    29    2
    58    28    56    1
    59    29    57    1
