@<TRIPOS>MOLECULE
lig
  45   47 0 0 0
SMALL
NO_CHARGES


@<TRIPOS>ATOM
      1 N_00          7.3147   10.2391   19.8565 n0      1  lig      -0.904557
      2 C_01          5.9972   10.1346   20.0268 c4      1  lig       0.735232
      3 O_02          5.3717   10.9158   20.7393 o0      1  lig      -0.520355
      4 N_03          5.4839    9.1043   19.3315 ng      1  lig      -0.287479
      5 C_04          4.1979    8.6584   19.2665 c5      1  lig       0.054979
      6 S_05          2.9238    9.3551   20.2302 s0      1  lig       0.066645
      7 C_06          1.7389    8.2746   19.5801 c6      1  lig      -0.022336
      8 C_07          0.3506    8.3443   20.0367 c7      1  lig       0.062027
      9 C_08         -0.1015    9.3812   20.8748 c8      1  lig      -0.070713
     10 C_09         -1.4296    9.4545   21.2890 c9      1  lig      -0.202435
     11 C_0a         -2.3349    8.4786   20.8818 cb      1  lig      -0.083180
     12 C_0b         -1.9058    7.4338   20.0662 ci      1  lig      -0.195739
     13 C_0c         -0.5763    7.3698   19.6469 cj      1  lig      -0.113371
     14 C_0d          2.3418    7.4328   18.6383 ck      1  lig      -0.324030
     15 C_0e          3.7315    7.6167   18.4481 cm      1  lig      -0.053858
     16 C_0f          4.5874    6.8933   17.4759 cn      1  lig       0.511924
     17 O_0g          5.7562    7.2250   17.2705 o1      1  lig      -0.558289
     18 N_0h          4.0089    5.8966   16.7789 nr      1  lig      -0.493350
     19 C_0i          4.6101    5.2946   15.5815 co      1  lig       0.059458
     20 C_0j          4.2179    3.8124   15.4114 cq      1  lig      -0.063587
     21 C_0k          4.7383    3.2340   14.0803 cr      1  lig      -0.024333
     22 C_0l          4.3432    4.1015   12.8692 cs      1  lig      -0.035724
     23 N_0m          4.7680    5.5311   13.0918 nw      1  lig      -0.124403
     24 C_0n          4.2240    6.1472   14.3559 ct      1  lig      -0.086323
     25 H_0o          7.8096   10.9806   20.3301 h0      1  lig       0.403581
     26 H_0p          7.8147    9.5899   19.2684 h6      1  lig       0.403581
     27 H_0q          6.1405    8.5722   18.7797 h7      1  lig       0.284903
     28 H_0r          0.5766   10.1454   21.2237 h8      1  lig       0.131792
     29 H_0s         -1.7520   10.2655   21.9253 h9      1  lig       0.162820
     30 H_0t         -3.3665    8.5301   21.1979 hb      1  lig       0.143436
     31 H_0u         -2.6036    6.6700   19.7560 hd      1  lig       0.154897
     32 H_0v         -0.2746    6.5543   19.0068 he      1  lig       0.129563
     33 H_0w          1.8144    6.6744   18.0786 hf      1  lig       0.166109
     34 H_0x          3.1058    5.5963   17.1171 hg      1  lig       0.333208
     35 H_0y          5.6771    5.4259   15.7664 hh      1  lig       0.102313
     36 H_0z          4.6556    3.2435   16.2329 hi      1  lig       0.067114
     37 H_10          3.1384    3.6837   15.5009 hj      1  lig       0.067114
     38 H_11          5.8244    3.1443   14.1183 hk      1  lig       0.060251
     39 H_12          4.3592    2.2220   13.9392 hl      1  lig       0.060251
     40 H_13          4.8040    3.7197   11.9571 hm      1  lig       0.100343
     41 H_14          3.2637    4.0682   12.7197 hq      1  lig       0.100343
     42 H_15          5.7765    5.5821   13.1117 hr      1  lig       0.276943
     43 H_16          3.1421    6.2682   14.2910 ht      1  lig       0.124146
     44 H_17          4.6411    7.1492   14.4659 hu      1  lig       0.124146
     45 H_18          4.4248    6.0845   12.3166 hv      1  lig       0.276943
@<TRIPOS>BOND
     1     1     2    1
     2     1    25    1
     3     1    26    1
     4     2     3    2
     5     2     4    1
     6     4     5    1
     7     4    27    1
     8     5    15    2
     9     5     6    1
    10     6     7    1
    11     7     8    1
    12     7    14    2
    13     8    13    1
    14     8     9    2
    15     9    10    1
    16     9    28    1
    17    10    11    2
    18    10    29    1
    19    11    12    1
    20    11    30    1
    21    12    13    2
    22    12    31    1
    23    13    32    1
    24    14    15    1
    25    14    33    1
    26    15    16    1
    27    16    17    2
    28    16    18    1
    29    18    19    1
    30    18    34    1
    31    19    24    1
    32    19    20    1
    33    19    35    1
    34    20    21    1
    35    20    36    1
    36    20    37    1
    37    21    22    1
    38    21    38    1
    39    21    39    1
    40    22    23    1
    41    22    40    1
    42    22    41    1
    43    23    24    1
    44    23    42    1
    45    23    45    1
    46    24    43    1
    47    24    44    1
