@<TRIPOS>MOLECULE
lig
  44   46 0 0 0
SMALL
NO_CHARGES


@<TRIPOS>ATOM
      1 N_00          7.3185   10.2240   19.8731 n0      1  lig      -0.902402
      2 C_01          6.0300   10.0223   20.1468 c4      1  lig       0.716246
      3 O_02          5.4583   10.6193   21.0557 o0      1  lig      -0.510694
      4 N_03          5.4829    9.1070   19.3277 ng      1  lig      -0.272140
      5 C_04          4.1979    8.6584   19.2665 c5      1  lig       0.044269
      6 S_05          2.9238    9.3551   20.2302 s0      1  lig       0.081575
      7 C_06          1.7389    8.2746   19.5801 c6      1  lig      -0.044485
      8 C_07          0.3506    8.3443   20.0367 c7      1  lig       0.197557
      9 C_08         -0.5763    7.3698   19.6469 c8      1  lig      -0.299670
     10 C_09         -1.9058    7.4338   20.0662 c9      1  lig       0.259748
     11 N_0a         -2.3349    8.4786   20.8818 nr      1  lig      -0.528455
     12 C_0b         -1.4296    9.4545   21.2890 cb      1  lig       0.239180
     13 C_0c         -0.1015    9.3812   20.8748 ci      1  lig      -0.244839
     14 C_0d          2.3418    7.4328   18.6383 cj      1  lig      -0.297492
     15 C_0e          3.7315    7.6167   18.4481 ck      1  lig      -0.047699
     16 C_0f          4.5874    6.8933   17.4759 cm      1  lig       0.507787
     17 O_0g          5.7562    7.2250   17.2705 o1      1  lig      -0.552367
     18 N_0h          4.0089    5.8966   16.7789 nw      1  lig      -0.512234
     19 C_0i          4.6101    5.2946   15.5815 cn      1  lig       0.054144
     20 C_0j          4.2179    3.8124   15.4114 co      1  lig      -0.062475
     21 C_0k          4.7383    3.2340   14.0803 cq      1  lig      -0.026359
     22 C_0l          4.3432    4.1015   12.8692 cr      1  lig      -0.033708
     23 N_0m          4.7680    5.5311   13.0918 nA      1  lig      -0.123272
     24 C_0n          4.2240    6.1472   14.3559 cs      1  lig      -0.095594
     25 H_0o          7.8363   10.8901   20.4273 h0      1  lig       0.407324
     26 H_0p          7.7727    9.7256   19.1228 h6      1  lig       0.407324
     27 H_0q          6.1049    8.6907   18.6498 h7      1  lig       0.284838
     28 H_0r         -0.2963    6.5450   19.0091 h8      1  lig       0.136624
     29 H_0s         -2.6115    6.6759   19.7597 h9      1  lig       0.084061
     30 H_0t         -1.8219   10.2362   21.9225 hb      1  lig       0.096805
     31 H_0u          0.5697   10.1487   21.2291 hd      1  lig       0.139242
     32 H_0v          1.8137    6.6790   18.0735 he      1  lig       0.171441
     33 H_0w          3.1185    5.5577   17.1103 hf      1  lig       0.343522
     34 H_0x          5.6952    5.3197   15.7001 hg      1  lig       0.109196
     35 H_0y          4.6387    3.2344   16.2352 hh      1  lig       0.068208
     36 H_0z          3.1366    3.6850   15.4766 hi      1  lig       0.068208
     37 H_10          5.8241    3.1400   14.1158 hj      1  lig       0.061323
     38 H_11          4.3486    2.2251   13.9382 hk      1  lig       0.061323
     39 H_12          4.8109    3.7192   11.9607 hl      1  lig       0.100949
     40 H_13          3.2649    4.0634   12.7120 hm      1  lig       0.100949
     41 H_14          5.7769    5.5691   13.1304 hq      1  lig       0.276835
     42 H_15          3.1401    6.2449   14.2830 hr      1  lig       0.129186
     43 H_16          4.6211    7.1575   14.4650 ht      1  lig       0.129186
     44 H_17          4.4531    6.0847   12.3086 hu      1  lig       0.276835
@<TRIPOS>BOND
     1     1     2    1
     2     1    25    1
     3     1    26    1
     4     2     3    2
     5     2     4    1
     6     4     5    1
     7     4    27    1
     8     5    15    2
     9     5     6    1
    10     6     7    1
    11     7     8    1
    12     7    14    2
    13     8    13    1
    14     8     9    2
    15     9    10    1
    16     9    28    1
    17    10    11    2
    18    10    29    1
    19    11    12    1
    20    12    13    2
    21    12    30    1
    22    13    31    1
    23    14    15    1
    24    14    32    1
    25    15    16    1
    26    16    17    2
    27    16    18    1
    28    18    19    1
    29    18    33    1
    30    19    24    1
    31    19    20    1
    32    19    34    1
    33    20    21    1
    34    20    35    1
    35    20    36    1
    36    21    22    1
    37    21    37    1
    38    21    38    1
    39    22    23    1
    40    22    39    1
    41    22    40    1
    42    23    24    1
    43    23    41    1
    44    23    44    1
    45    24    42    1
    46    24    43    1
