@<TRIPOS>MOLECULE
lig
  45   47 0 0 0
SMALL
NO_CHARGES


@<TRIPOS>ATOM
      1 N_00          7.4817   10.0935   19.6263 n0      1  lig      -0.893019
      2 C_01          6.1646   10.0882   19.8295 c4      1  lig       0.703285
      3 O_02          5.5996   10.9770   20.4608 o0      1  lig      -0.526125
      4 N_03          5.5732    9.0248   19.2602 ng      1  lig      -0.327936
      5 C_04          4.1979    8.6584   19.2665 c5      1  lig       0.180696
      6 C_05          2.9238    9.3551   20.2302 c6      1  lig      -0.102260
      7 C_06          1.7389    8.2746   19.5801 c7      1  lig      -0.006309
      8 C_07          0.3506    8.3443   20.0367 c8      1  lig       0.067659
      9 C_08         -0.1015    9.3812   20.8748 c9      1  lig      -0.117827
     10 C_09         -1.4296    9.4545   21.2890 cb      1  lig      -0.184553
     11 C_0a         -2.3349    8.4786   20.8818 ci      1  lig      -0.071391
     12 C_0b         -1.9058    7.4338   20.0662 cj      1  lig      -0.211281
     13 C_0c         -0.5763    7.3698   19.6469 ck      1  lig      -0.059543
     14 S_0d          2.3418    7.4328   18.6383 s0      1  lig      -0.120636
     15 C_0e          3.7315    7.6167   18.4481 cm      1  lig      -0.233240
     16 C_0f          4.5874    6.8933   17.4759 cn      1  lig       0.542186
     17 O_0g          5.7562    7.2250   17.2705 o1      1  lig      -0.562536
     18 N_0h          4.0089    5.8966   16.7789 nr      1  lig      -0.464493
     19 C_0i          4.6101    5.2946   15.5815 co      1  lig       0.061833
     20 C_0j          4.2179    3.8124   15.4114 cq      1  lig      -0.062654
     21 C_0k          4.7383    3.2340   14.0803 cr      1  lig      -0.029339
     22 C_0l          4.3432    4.1015   12.8692 cs      1  lig      -0.027790
     23 N_0m          4.7680    5.5311   13.0918 nw      1  lig      -0.132731
     24 C_0n          4.2240    6.1472   14.3559 ct      1  lig      -0.076876
     25 H_0o          8.0305   10.8505   20.0070 h0      1  lig       0.397065
     26 H_0p          7.9287    9.3554   19.1041 h6      1  lig       0.397065
     27 H_0q          6.1730    8.4035   18.7375 h7      1  lig       0.290926
     28 H_0r          3.0758   10.1684   20.9221 h8      1  lig       0.134799
     29 H_0s          0.5827   10.1419   21.2200 h9      1  lig       0.160251
     30 H_0t         -1.7528   10.2663   21.9240 hb      1  lig       0.160215
     31 H_0u         -3.3672    8.5317   21.1954 hd      1  lig       0.148242
     32 H_0v         -2.6042    6.6711   19.7547 he      1  lig       0.162267
     33 H_0w         -0.2818    6.5518   19.0070 hf      1  lig       0.132012
     34 H_0x          3.1098    5.5907   17.1233 hg      1  lig       0.324123
     35 H_0y          5.6771    5.4254   15.7663 hh      1  lig       0.095115
     36 H_0z          4.6554    3.2435   16.2329 hi      1  lig       0.068845
     37 H_10          3.1383    3.6840   15.5006 hj      1  lig       0.068845
     38 H_11          5.8243    3.1438   14.1183 hk      1  lig       0.059921
     39 H_12          4.3586    2.2222   13.9395 hl      1  lig       0.059921
     40 H_13          4.8040    3.7198   11.9570 hm      1  lig       0.098270
     41 H_14          3.2637    4.0682   12.7198 hq      1  lig       0.098270
     42 H_15          5.7764    5.5834   13.1104 hr      1  lig       0.277982
     43 H_16          3.1419    6.2667   14.2905 ht      1  lig       0.121382
     44 H_17          4.6402    7.1496   14.4656 hu      1  lig       0.121382
     45 H_18          4.4220    6.0849   12.3178 hv      1  lig       0.277982
@<TRIPOS>BOND
     1     1     2    1
     2     1    25    1
     3     1    26    1
     4     2     3    2
     5     2     4    1
     6     4     5    1
     7     4    27    1
     8     5    15    2
     9     5     6    1
    10     6     7    2
    11     6    28    1
    12     7     8    1
    13     7    14    1
    14     8    13    1
    15     8     9    2
    16     9    10    1
    17     9    29    1
    18    10    11    2
    19    10    30    1
    20    11    12    1
    21    11    31    1
    22    12    13    2
    23    12    32    1
    24    13    33    1
    25    14    15    1
    26    15    16    1
    27    16    17    2
    28    16    18    1
    29    18    19    1
    30    18    34    1
    31    19    24    1
    32    19    20    1
    33    19    35    1
    34    20    21    1
    35    20    36    1
    36    20    37    1
    37    21    22    1
    38    21    38    1
    39    21    39    1
    40    22    23    1
    41    22    40    1
    42    22    41    1
    43    23    24    1
    44    23    42    1
    45    23    45    1
    46    24    43    1
    47    24    44    1
