@<TRIPOS>MOLECULE
lig
  52   55 0 0 0
SMALL
NO_CHARGES


@<TRIPOS>ATOM
      1 Cl00         13.0752    7.4524   26.9504 a0      1  lig      -0.094887
      2 C_01         11.3981    7.7176   26.6606 c4      1  lig      -0.050473
      3 C_02         10.9944    8.3125   25.4691 c5      1  lig      -0.080587
      4 C_03          9.6226    8.4990   25.2504 c6      1  lig       0.009567
      5 C_04          8.6526    8.1065   26.2235 c7      1  lig       0.076319
      6 C_05          7.3315    8.3899   25.7953 c8      1  lig      -0.101433
      7 C_06          9.0999    7.5202   27.4192 c9      1  lig      -0.204098
      8 C_07         10.4667    7.3297   27.6180 cb      1  lig      -0.053814
      9 C_08          7.2928    8.9650   24.5454 ci      1  lig      -0.104490
     10 S_09          5.7785    9.4532   23.7089 s0      1  lig       0.946251
     11 O_0a          4.6718    9.2587   24.6025 o0      1  lig      -0.506626
     12 O_0b          5.9649   10.7221   23.0626 o1      1  lig      -0.481908
     13 N_0c          5.6289    8.3253   22.4695 n0      1  lig      -0.561135
     14 C_0d          5.4417    6.9107   22.7309 cj      1  lig       0.058615
     15 C_0e          4.0870    6.3630   22.2954 ck      1  lig      -0.131106
     16 C_0f          4.3958    4.8831   22.0150 cm      1  lig      -0.127269
     17 C_0g          6.4069    6.0252   21.9629 cn      1  lig       0.402428
     18 O_0h          7.5766    6.3386   21.7509 o2      1  lig      -0.558263
     19 N_0i          5.8100    4.8683   21.6346 ng      1  lig      -0.018889
     20 C_0j          6.4608    3.6920   21.0252 co      1  lig       0.036860
     21 C_0k          5.9763    2.4062   21.7276 cq      1  lig      -0.165636
     22 C_0l          6.2651    3.6316   19.4908 cr      1  lig       0.399537
     23 O_0m          5.3887    4.3363   18.9859 o3      1  lig      -0.533896
     24 N_0n          7.0216    2.7913   18.7364 nr      1  lig      -0.173210
     25 C_0o          6.8197    2.6227   17.2899 cs      1  lig       0.030583
     26 C_0p          8.1082    3.0277   16.5563 ct      1  lig       0.076670
     27 O_0q          9.1819    2.2163   17.0133 o4      1  lig      -0.429376
     28 C_0r          9.4160    2.4126   18.4009 cw      1  lig       0.103445
     29 C_0s          8.1644    1.9838   19.1874 cA      1  lig       0.024939
     30 S_0t          8.8643    9.2012   23.8282 s1      1  lig      -0.013948
     31 H_0u         11.7220    8.6148   24.7313 h0      1  lig       0.185699
     32 H_0v          6.4440    8.1834   26.3773 h6      1  lig       0.176801
     33 H_0w          8.3913    7.2148   28.1768 h7      1  lig       0.166491
     34 H_0x         10.8146    6.8712   28.5327 h8      1  lig       0.142325
     35 H_0y          6.1033    8.6335   21.6325 h9      1  lig       0.362110
     36 H_0z          5.5902    6.7259   23.7940 hb      1  lig       0.065200
     37 H_10          3.3124    6.4951   23.0511 hd      1  lig       0.105004
     38 H_11          3.7540    6.8539   21.3792 he      1  lig       0.105004
     39 H_12          4.2561    4.2854   22.9166 hf      1  lig       0.094772
     40 H_13          3.7543    4.4797   21.2307 hg      1  lig       0.094772
     41 H_14          7.5263    3.7881   21.2212 hh      1  lig       0.080952
     42 H_15          6.5125    1.5233   21.3843 hi      1  lig       0.057080
     43 H_16          6.1346    2.4685   22.8040 hj      1  lig       0.057080
     44 H_17          4.9159    2.2205   21.5552 hk      1  lig       0.057080
     45 H_18          6.5824    1.5786   17.0799 hl      1  lig       0.062030
     46 H_19          5.9845    3.2068   16.9026 hm      1  lig       0.062030
     47 H_1a          7.9881    2.8700   15.4866 hq      1  lig       0.063184
     48 H_1b          8.3308    4.0851   16.7066 hr      1  lig       0.063184
     49 H_1c         10.2715    1.8068   18.6967 ht      1  lig       0.063421
     50 H_1d          9.6761    3.4529   18.6036 hu      1  lig       0.063421
     51 H_1e          8.3718    2.0732   20.2476 hv      1  lig       0.049095
     52 H_1f          7.9532    0.9285   19.0096 hy      1  lig       0.049095
@<TRIPOS>BOND
     1     1     2    1
     2     2     3    2
     3     2     8    1
     4     3     4    1
     5     3    31    1
     6     4     5    2
     7     4    30    1
     8     5     6    1
     9     5     7    1
    10     6     9    2
    11     6    32    1
    12     7     8    2
    13     7    33    1
    14     8    34    1
    15     9    10    1
    16     9    30    1
    17    10    11    2
    18    10    12    2
    19    10    13    1
    20    13    14    1
    21    13    35    1
    22    14    15    1
    23    14    17    1
    24    14    36    1
    25    15    16    1
    26    15    37    1
    27    15    38    1
    28    16    19    1
    29    16    39    1
    30    16    40    1
    31    17    18    2
    32    17    19    1
    33    19    20    1
    34    20    21    1
    35    20    22    1
    36    20    41    1
    37    21    42    1
    38    21    43    1
    39    21    44    1
    40    22    23    2
    41    22    24    1
    42    24    25    1
    43    24    29    1
    44    25    26    1
    45    25    45    1
    46    25    46    1
    47    26    27    1
    48    26    47    1
    49    26    48    1
    50    27    28    1
    51    28    29    1
    52    28    49    1
    53    28    50    1
    54    29    51    1
    55    29    52    1
