@<TRIPOS>MOLECULE
lig
  53   56 0 0 0
SMALL
NO_CHARGES


@<TRIPOS>ATOM
      1 Cl00         12.9851    7.5343   26.8168 a0      1  lig      -0.118228
      2 C_01         11.2916    7.7606   26.5735 c4      1  lig      -0.057938
      3 C_02         10.8403    8.3412   25.3887 c5      1  lig      -0.102861
      4 C_03          9.4603    8.5170   25.1979 c6      1  lig       0.085287
      5 C_04          8.5646    8.1012   26.2344 c7      1  lig       0.128402
      6 N_05          7.2886    8.3966   25.8012 n0      1  lig      -0.279539
      7 C_06          9.0165    7.5202   27.4235 c8      1  lig      -0.278221
      8 C_07         10.3974    7.3594   27.5637 c9      1  lig      -0.041913
      9 C_08          7.3333    8.9611   24.5443 cb      1  lig      -0.006631
     10 S_09          5.7834    9.4537   23.7121 s0      1  lig       0.964089
     11 O_0a          4.6718    9.2586   24.6025 o0      1  lig      -0.515217
     12 O_0b          5.9649   10.7221   23.0626 o1      1  lig      -0.510275
     13 N_0c          5.6290    8.3254   22.4695 ng      1  lig      -0.552672
     14 C_0d          5.4417    6.9107   22.7309 ci      1  lig       0.075924
     15 C_0e          4.0870    6.3630   22.2954 cj      1  lig      -0.158250
     16 C_0f          4.3958    4.8831   22.0150 ck      1  lig      -0.103994
     17 C_0g          6.4069    6.0251   21.9629 cm      1  lig       0.417543
     18 O_0h          7.5766    6.3386   21.7509 o2      1  lig      -0.545412
     19 N_0i          5.8100    4.8683   21.6346 nr      1  lig      -0.037233
     20 C_0j          6.4608    3.6920   21.0252 cn      1  lig       0.022373
     21 C_0k          5.9763    2.4062   21.7276 co      1  lig      -0.178054
     22 C_0l          6.2651    3.6316   19.4908 cq      1  lig       0.398145
     23 O_0m          5.3887    4.3363   18.9859 o3      1  lig      -0.531294
     24 N_0n          7.0216    2.7913   18.7364 nw      1  lig      -0.171109
     25 C_0o          6.8197    2.6227   17.2899 cr      1  lig       0.032391
     26 C_0p          8.1082    3.0277   16.5563 cs      1  lig       0.068498
     27 O_0q          9.1819    2.2163   17.0133 o4      1  lig      -0.424748
     28 C_0r          9.4160    2.4126   18.4009 ct      1  lig       0.102888
     29 C_0s          8.1644    1.9838   19.1874 cw      1  lig       0.025553
     30 C_0t          8.6533    9.0542   24.1398 cA      1  lig      -0.286418
     31 H_0u         11.5484    8.6477   24.6340 h0      1  lig       0.158254
     32 H_0v          8.3374    7.2072   28.2030 h6      1  lig       0.182136
     33 H_0w         10.7918    6.9127   28.4662 h7      1  lig       0.144789
     34 H_0x          6.1033    8.6335   21.6325 h8      1  lig       0.344883
     35 H_0y          5.5902    6.7259   23.7940 h9      1  lig       0.050976
     36 H_0z          3.3124    6.4951   23.0511 hb      1  lig       0.106827
     37 H_10          3.7540    6.8539   21.3792 hd      1  lig       0.106827
     38 H_11          4.2561    4.2854   22.9166 he      1  lig       0.093072
     39 H_12          3.7543    4.4797   21.2307 hf      1  lig       0.093072
     40 H_13          7.5263    3.7881   21.2212 hg      1  lig       0.085226
     41 H_14          6.5125    1.5233   21.3843 hh      1  lig       0.062346
     42 H_15          6.1346    2.4685   22.8040 hi      1  lig       0.062346
     43 H_16          4.9159    2.2205   21.5552 hj      1  lig       0.062346
     44 H_17          6.5824    1.5786   17.0799 hk      1  lig       0.062283
     45 H_18          5.9845    3.2068   16.9026 hl      1  lig       0.062283
     46 H_19          7.9881    2.8700   15.4866 hm      1  lig       0.065633
     47 H_1a          8.3308    4.0851   16.7066 hq      1  lig       0.065633
     48 H_1b         10.2715    1.8068   18.6967 hr      1  lig       0.061627
     49 H_1c          9.6761    3.4529   18.6036 ht      1  lig       0.061627
     50 H_1d          8.3718    2.0732   20.2476 hu      1  lig       0.048056
     51 H_1e          7.9532    0.9285   19.0096 hv      1  lig       0.048056
     52 H_1f          6.4158    8.2700   26.2987 hy      1  lig       0.335451
     53 H_1g          8.9872    9.4673   23.1975 hz      1  lig       0.215165
@<TRIPOS>BOND
     1     1     2    1
     2     2     3    2
     3     2     8    1
     4     3     4    1
     5     3    31    1
     6     4     5    2
     7     4    30    1
     8     5     6    1
     9     5     7    1
    10     6     9    1
    11     6    52    1
    12     7     8    2
    13     7    32    1
    14     8    33    1
    15     9    10    1
    16     9    30    2
    17    10    11    2
    18    10    12    2
    19    10    13    1
    20    13    14    1
    21    13    34    1
    22    14    15    1
    23    14    17    1
    24    14    35    1
    25    15    16    1
    26    15    36    1
    27    15    37    1
    28    16    19    1
    29    16    38    1
    30    16    39    1
    31    17    18    2
    32    17    19    1
    33    19    20    1
    34    20    21    1
    35    20    22    1
    36    20    40    1
    37    21    41    1
    38    21    42    1
    39    21    43    1
    40    22    23    2
    41    22    24    1
    42    24    25    1
    43    24    29    1
    44    25    26    1
    45    25    44    1
    46    25    45    1
    47    26    27    1
    48    26    46    1
    49    26    47    1
    50    27    28    1
    51    28    29    1
    52    28    48    1
    53    28    49    1
    54    29    50    1
    55    29    51    1
    56    30    53    1
