@<TRIPOS>MOLECULE
lig
  53   56 0 0 0
SMALL
NO_CHARGES


@<TRIPOS>ATOM
      1 Cl00         13.0435    7.6520   26.5608 a0      1  lig      -0.112279
      2 C_01         11.3321    7.8207   26.4391 c4      1  lig      -0.030235
      3 C_02         10.7820    8.3906   25.2895 c5      1  lig      -0.134359
      4 C_03          9.3876    8.5062   25.2365 c6      1  lig       0.126501
      5 C_04          8.5617    8.0635   26.3142 c7      1  lig       0.092217
      6 C_05          7.2171    8.3337   25.9361 c8      1  lig      -0.206360
      7 C_06          9.1520    7.4957   27.4514 c9      1  lig      -0.233374
      8 C_07         10.5387    7.3816   27.4966 cb      1  lig      -0.095423
      9 C_08          7.2329    8.9115   24.6841 ci      1  lig      -0.071894
     10 S_09          5.7798    9.4516   23.7173 s0      1  lig       0.944067
     11 O_0a          4.6717    9.2587   24.6024 o0      1  lig      -0.501136
     12 O_0b          5.9649   10.7221   23.0627 o1      1  lig      -0.498890
     13 N_0c          5.6290    8.3253   22.4696 n0      1  lig      -0.653811
     14 C_0d          5.4417    6.9107   22.7309 cj      1  lig       0.307728
     15 C_0e          4.0870    6.3630   22.2954 ck      1  lig      -0.109356
     16 C_0f          4.3958    4.8831   22.0150 cm      1  lig      -0.155022
     17 C_0g          6.4069    6.0251   21.9629 cn      1  lig       0.304764
     18 O_0h          7.5766    6.3386   21.7509 o2      1  lig      -0.479845
     19 N_0i          5.8100    4.8683   21.6346 ng      1  lig      -0.040513
     20 C_0j          6.4608    3.6920   21.0252 co      1  lig       0.027794
     21 C_0k          5.9763    2.4062   21.7276 cq      1  lig      -0.205207
     22 C_0l          6.2651    3.6316   19.4908 cr      1  lig       0.389052
     23 O_0m          5.3887    4.3363   18.9859 o3      1  lig      -0.526470
     24 N_0n          7.0216    2.7913   18.7364 nr      1  lig      -0.170194
     25 C_0o          6.8197    2.6227   17.2899 cs      1  lig       0.032648
     26 C_0p          8.1082    3.0277   16.5563 ct      1  lig       0.091731
     27 O_0q          9.1819    2.2163   17.0133 o4      1  lig      -0.415515
     28 C_0r          9.4160    2.4126   18.4009 cw      1  lig       0.098261
     29 C_0s          8.1644    1.9838   19.1874 cA      1  lig       0.019245
     30 N_0t          8.5419    9.0127   24.2611 nw      1  lig      -0.280548
     31 H_0u         11.4201    8.7226   24.4870 h0      1  lig       0.157421
     32 H_0v          6.3211    8.1395   26.5049 h6      1  lig       0.199249
     33 H_0w          8.5441    7.1560   28.2763 h7      1  lig       0.178093
     34 H_0x         11.0096    6.9465   28.3671 h8      1  lig       0.142282
     35 H_0y          6.1033    8.6335   21.6325 h9      1  lig       0.369648
     36 H_0z          5.5902    6.7259   23.7940 hb      1  lig       0.035688
     37 H_10          3.3124    6.4951   23.0511 hd      1  lig       0.080010
     38 H_11          3.7540    6.8538   21.3792 he      1  lig       0.080010
     39 H_12          4.2561    4.2854   22.9166 hf      1  lig       0.109963
     40 H_13          3.7543    4.4797   21.2307 hg      1  lig       0.109963
     41 H_14          7.5263    3.7881   21.2212 hh      1  lig       0.079603
     42 H_15          6.5125    1.5233   21.3843 hi      1  lig       0.073991
     43 H_16          6.1346    2.4685   22.8040 hj      1  lig       0.073991
     44 H_17          4.9159    2.2205   21.5552 hk      1  lig       0.073991
     45 H_18          6.5824    1.5786   17.0799 hl      1  lig       0.064222
     46 H_19          5.9845    3.2068   16.9026 hm      1  lig       0.064222
     47 H_1a          7.9881    2.8700   15.4866 hq      1  lig       0.057174
     48 H_1b          8.3308    4.0851   16.7066 hr      1  lig       0.057174
     49 H_1c         10.2715    1.8068   18.6967 ht      1  lig       0.055825
     50 H_1d          9.6761    3.4529   18.6036 hu      1  lig       0.055825
     51 H_1e          8.3718    2.0732   20.2476 hv      1  lig       0.050665
     52 H_1f          7.9532    0.9285   19.0096 hy      1  lig       0.050665
     53 H_1g          8.7999    9.4141   23.3720 hz      1  lig       0.266748
@<TRIPOS>BOND
     1     1     2    1
     2     2     3    2
     3     2     8    1
     4     3     4    1
     5     3    31    1
     6     4     5    2
     7     4    30    1
     8     5     6    1
     9     5     7    1
    10     6     9    2
    11     6    32    1
    12     7     8    2
    13     7    33    1
    14     8    34    1
    15     9    10    1
    16     9    30    1
    17    10    11    2
    18    10    12    2
    19    10    13    1
    20    13    14    1
    21    13    35    1
    22    14    15    1
    23    14    17    1
    24    14    36    1
    25    15    16    1
    26    15    37    1
    27    15    38    1
    28    16    19    1
    29    16    39    1
    30    16    40    1
    31    17    18    2
    32    17    19    1
    33    19    20    1
    34    20    21    1
    35    20    22    1
    36    20    41    1
    37    21    42    1
    38    21    43    1
    39    21    44    1
    40    22    23    2
    41    22    24    1
    42    24    25    1
    43    24    29    1
    44    25    26    1
    45    25    45    1
    46    25    46    1
    47    26    27    1
    48    26    47    1
    49    26    48    1
    50    27    28    1
    51    28    29    1
    52    28    49    1
    53    28    50    1
    54    29    51    1
    55    29    52    1
    56    30    53    1
