@<TRIPOS>MOLECULE
lig
  51   54 0 0 0
SMALL
NO_CHARGES


@<TRIPOS>ATOM
      1 Cl00         13.0355    7.4392   27.0060 a0      1  lig      -0.090067
      2 C_01         11.3717    7.7246   26.6525 c4      1  lig      -0.060000
      3 C_02         11.0243    8.3290   25.4447 c5      1  lig      -0.119797
      4 C_03          9.6635    8.5353   25.1795 c6      1  lig      -0.003254
      5 C_04          8.6659    8.1367   26.1090 c7      1  lig       0.261691
      6 N_05          7.3861    8.3712   25.7204 n0      1  lig      -0.384043
      7 C_06          9.0363    7.5445   27.3251 c8      1  lig      -0.198592
      8 C_07         10.3977    7.3460   27.5770 c9      1  lig      -0.068025
      9 C_08          7.3427    8.9659   24.5518 cb      1  lig       0.177382
     10 S_09          5.7897    9.4526   23.7185 s0      1  lig       0.889052
     11 O_0a          4.6718    9.2587   24.6025 o0      1  lig      -0.468584
     12 O_0b          5.9649   10.7221   23.0626 o1      1  lig      -0.477297
     13 N_0c          5.6289    8.3253   22.4695 ng      1  lig      -0.518156
     14 C_0d          5.4417    6.9107   22.7309 ci      1  lig       0.068783
     15 C_0e          4.0870    6.3630   22.2954 cj      1  lig      -0.148037
     16 C_0f          4.3958    4.8831   22.0150 ck      1  lig      -0.128122
     17 C_0g          6.4070    6.0252   21.9629 cm      1  lig       0.454688
     18 O_0h          7.5766    6.3386   21.7509 o2      1  lig      -0.546538
     19 N_0i          5.8100    4.8683   21.6346 nr      1  lig      -0.078254
     20 C_0j          6.4608    3.6920   21.0252 cn      1  lig       0.022619
     21 C_0k          5.9763    2.4062   21.7276 co      1  lig      -0.193070
     22 C_0l          6.2651    3.6316   19.4908 cq      1  lig       0.405711
     23 O_0m          5.3887    4.3363   18.9859 o3      1  lig      -0.531022
     24 N_0n          7.0216    2.7913   18.7364 nw      1  lig      -0.174019
     25 C_0o          6.8197    2.6227   17.2899 cr      1  lig       0.029422
     26 C_0p          8.1082    3.0277   16.5563 cs      1  lig       0.078676
     27 O_0q          9.1819    2.2163   17.0133 o4      1  lig      -0.429712
     28 C_0r          9.4160    2.4126   18.4009 ct      1  lig       0.124606
     29 C_0s          8.1644    1.9838   19.1874 cw      1  lig       0.012800
     30 S_0t          8.8859    9.2640   23.7813 s1      1  lig       0.001546
     31 H_0u         11.7826    8.6248   24.7358 h0      1  lig       0.203581
     32 H_0v          8.2851    7.2513   28.0445 h6      1  lig       0.168943
     33 H_0w         10.7098    6.8877   28.5044 h7      1  lig       0.152397
     34 H_0x          6.1033    8.6335   21.6325 h8      1  lig       0.321996
     35 H_0y          5.5902    6.7259   23.7940 h9      1  lig       0.067605
     36 H_0z          3.3124    6.4951   23.0511 hb      1  lig       0.107045
     37 H_10          3.7540    6.8538   21.3792 hd      1  lig       0.107045
     38 H_11          4.2561    4.2854   22.9166 he      1  lig       0.105584
     39 H_12          3.7543    4.4797   21.2307 hf      1  lig       0.105584
     40 H_13          7.5263    3.7881   21.2212 hg      1  lig       0.088604
     41 H_14          6.5125    1.5233   21.3843 hh      1  lig       0.067417
     42 H_15          6.1346    2.4685   22.8040 hi      1  lig       0.067417
     43 H_16          4.9159    2.2205   21.5552 hj      1  lig       0.067417
     44 H_17          6.5824    1.5786   17.0799 hk      1  lig       0.062910
     45 H_18          5.9845    3.2068   16.9026 hl      1  lig       0.062910
     46 H_19          7.9881    2.8700   15.4866 hm      1  lig       0.062088
     47 H_1a          8.3308    4.0851   16.7066 hq      1  lig       0.062088
     48 H_1b         10.2715    1.8068   18.6967 hr      1  lig       0.055287
     49 H_1c          9.6761    3.4529   18.6036 ht      1  lig       0.055287
     50 H_1d          8.3718    2.0732   20.2476 hu      1  lig       0.049204
     51 H_1e          7.9532    0.9285   19.0096 hv      1  lig       0.049204
@<TRIPOS>BOND
     1     1     2    1
     2     2     3    2
     3     2     8    1
     4     3     4    1
     5     3    31    1
     6     4     5    2
     7     4    30    1
     8     5     6    1
     9     5     7    1
    10     6     9    2
    11     7     8    2
    12     7    32    1
    13     8    33    1
    14     9    10    1
    15     9    30    1
    16    10    11    2
    17    10    12    2
    18    10    13    1
    19    13    14    1
    20    13    34    1
    21    14    15    1
    22    14    17    1
    23    14    35    1
    24    15    16    1
    25    15    36    1
    26    15    37    1
    27    16    19    1
    28    16    38    1
    29    16    39    1
    30    17    18    2
    31    17    19    1
    32    19    20    1
    33    20    21    1
    34    20    22    1
    35    20    40    1
    36    21    41    1
    37    21    42    1
    38    21    43    1
    39    22    23    2
    40    22    24    1
    41    24    25    1
    42    24    29    1
    43    25    26    1
    44    25    44    1
    45    25    45    1
    46    26    27    1
    47    26    46    1
    48    26    47    1
    49    27    28    1
    50    28    29    1
    51    28    48    1
    52    28    49    1
    53    29    50    1
    54    29    51    1
