@<TRIPOS>MOLECULE
lig
  52   55 0 0 0
SMALL
NO_CHARGES


@<TRIPOS>ATOM
      1 Cl00         13.1280    7.7391   26.0791 a0      1  lig      -0.088978
      2 C_01         11.4121    7.8915   26.1214 c4      1  lig      -0.028667
      3 C_02         10.7416    8.4100   25.0119 c5      1  lig      -0.130297
      4 C_03          9.3510    8.5165   25.1014 c6      1  lig       0.220467
      5 C_04          8.6317    8.1269   26.2573 c7      1  lig       0.073719
      6 C_05          7.2717    8.4047   25.9531 c8      1  lig      -0.195543
      7 C_06          9.3302    7.6022   27.3555 c9      1  lig      -0.243293
      8 C_07         10.7204    7.4932   27.2671 cb      1  lig      -0.095910
      9 C_08          7.2511    8.9240   24.6642 ci      1  lig       0.107168
     10 S_09          5.7838    9.4508   23.7162 s0      1  lig       0.888899
     11 O_0a          4.6717    9.2587   24.6024 o0      1  lig      -0.497751
     12 O_0b          5.9649   10.7221   23.0627 o1      1  lig      -0.483929
     13 N_0c          5.6289    8.3253   22.4696 n0      1  lig      -0.513460
     14 C_0d          5.4417    6.9107   22.7308 cj      1  lig       0.118286
     15 C_0e          4.0870    6.3631   22.2955 ck      1  lig      -0.130614
     16 C_0f          4.3958    4.8831   22.0150 cm      1  lig      -0.131998
     17 C_0g          6.4069    6.0251   21.9629 cn      1  lig       0.424482
     18 O_0h          7.5767    6.3386   21.7509 o2      1  lig      -0.542774
     19 N_0i          5.8100    4.8683   21.6346 ng      1  lig      -0.077555
     20 C_0j          6.4608    3.6920   21.0252 co      1  lig       0.011814
     21 C_0k          5.9763    2.4062   21.7276 cq      1  lig      -0.172191
     22 C_0l          6.2651    3.6316   19.4908 cr      1  lig       0.400725
     23 O_0m          5.3887    4.3363   18.9859 o3      1  lig      -0.525150
     24 N_0n          7.0216    2.7913   18.7364 nr      1  lig      -0.169905
     25 C_0o          6.8197    2.6227   17.2899 cs      1  lig       0.033973
     26 C_0p          8.1082    3.0277   16.5563 ct      1  lig       0.105236
     27 O_0q          9.1819    2.2163   17.0133 o4      1  lig      -0.436057
     28 C_0r          9.4160    2.4126   18.4009 cw      1  lig       0.135052
     29 C_0s          8.1644    1.9838   19.1874 cA      1  lig       0.008246
     30 O_0t          8.5102    8.9920   24.1295 o5      1  lig      -0.245002
     31 H_0u         11.2700    8.7182   24.1235 h0      1  lig       0.167784
     32 H_0v          6.3987    8.2559   26.5739 h6      1  lig       0.188784
     33 H_0w          8.8063    7.2934   28.2498 h7      1  lig       0.194262
     34 H_0x         11.2772    7.0945   28.1034 h8      1  lig       0.150823
     35 H_0y          6.1033    8.6335   21.6325 h9      1  lig       0.327325
     36 H_0z          5.5902    6.7260   23.7941 hb      1  lig       0.040043
     37 H_10          3.3124    6.4951   23.0511 hd      1  lig       0.097228
     38 H_11          3.7540    6.8538   21.3792 he      1  lig       0.097228
     39 H_12          4.2561    4.2854   22.9166 hf      1  lig       0.103619
     40 H_13          3.7543    4.4797   21.2307 hg      1  lig       0.103619
     41 H_14          7.5263    3.7881   21.2212 hh      1  lig       0.093771
     42 H_15          6.5125    1.5233   21.3843 hi      1  lig       0.062517
     43 H_16          6.1346    2.4685   22.8040 hj      1  lig       0.062517
     44 H_17          4.9159    2.2205   21.5552 hk      1  lig       0.062517
     45 H_18          6.5824    1.5786   17.0799 hl      1  lig       0.057541
     46 H_19          5.9845    3.2068   16.9026 hm      1  lig       0.057541
     47 H_1a          7.9881    2.8700   15.4866 hq      1  lig       0.053933
     48 H_1b          8.3308    4.0851   16.7066 hr      1  lig       0.053933
     49 H_1c         10.2715    1.8068   18.6967 ht      1  lig       0.051425
     50 H_1d          9.6761    3.4529   18.6036 hu      1  lig       0.051425
     51 H_1e          8.3718    2.0732   20.2476 hv      1  lig       0.051586
     52 H_1f          7.9532    0.9285   19.0096 hy      1  lig       0.051586
@<TRIPOS>BOND
     1     1     2    1
     2     2     3    2
     3     2     8    1
     4     3     4    1
     5     3    31    1
     6     4     5    2
     7     4    30    1
     8     5     6    1
     9     5     7    1
    10     6     9    2
    11     6    32    1
    12     7     8    2
    13     7    33    1
    14     8    34    1
    15     9    10    1
    16     9    30    1
    17    10    11    2
    18    10    12    2
    19    10    13    1
    20    13    14    1
    21    13    35    1
    22    14    15    1
    23    14    17    1
    24    14    36    1
    25    15    16    1
    26    15    37    1
    27    15    38    1
    28    16    19    1
    29    16    39    1
    30    16    40    1
    31    17    18    2
    32    17    19    1
    33    19    20    1
    34    20    21    1
    35    20    22    1
    36    20    41    1
    37    21    42    1
    38    21    43    1
    39    21    44    1
    40    22    23    2
    41    22    24    1
    42    24    25    1
    43    24    29    1
    44    25    26    1
    45    25    45    1
    46    25    46    1
    47    26    27    1
    48    26    47    1
    49    26    48    1
    50    27    28    1
    51    28    29    1
    52    28    49    1
    53    28    50    1
    54    29    51    1
    55    29    52    1
