@<TRIPOS>MOLECULE
lig
  52   55 0 0 0
SMALL
NO_CHARGES


@<TRIPOS>ATOM
      1 Cl00         12.9571    7.5354   26.8576 a0      1  lig      -0.101082
      2 C_01         11.2731    7.7702   26.5675 c4      1  lig      -0.071306
      3 C_02         10.8596    8.3624   25.3703 c5      1  lig      -0.101764
      4 C_03          9.4832    8.5445   25.1451 c6      1  lig       0.025030
      5 C_04          8.5691    8.1156   26.1365 c7      1  lig       0.266808
      6 O_05          7.2805    8.3525   25.7543 o0      1  lig      -0.229733
      7 C_06          8.9725    7.5273   27.3394 c8      1  lig      -0.271859
      8 C_07         10.3480    7.3647   27.5336 c9      1  lig      -0.049024
      9 C_08          7.3483    8.9659   24.5325 cb      1  lig       0.080025
     10 S_09          5.7865    9.4528   23.7161 s0      1  lig       0.907680
     11 O_0a          4.6718    9.2587   24.6025 o1      1  lig      -0.480711
     12 O_0b          5.9649   10.7221   23.0626 o2      1  lig      -0.507938
     13 N_0c          5.6289    8.3253   22.4695 n0      1  lig      -0.507001
     14 C_0d          5.4417    6.9107   22.7309 ci      1  lig       0.079500
     15 C_0e          4.0870    6.3630   22.2954 cj      1  lig      -0.125222
     16 C_0f          4.3958    4.8831   22.0150 ck      1  lig      -0.145420
     17 C_0g          6.4069    6.0251   21.9629 cm      1  lig       0.412342
     18 O_0h          7.5766    6.3386   21.7509 o3      1  lig      -0.540523
     19 N_0i          5.8100    4.8683   21.6346 ng      1  lig      -0.049831
     20 C_0j          6.4608    3.6920   21.0252 cn      1  lig       0.026545
     21 C_0k          5.9763    2.4062   21.7276 co      1  lig      -0.199318
     22 C_0l          6.2651    3.6316   19.4908 cq      1  lig       0.389606
     23 O_0m          5.3887    4.3363   18.9859 o4      1  lig      -0.527478
     24 N_0n          7.0216    2.7913   18.7364 nr      1  lig      -0.158440
     25 C_0o          6.8197    2.6227   17.2899 cr      1  lig       0.025084
     26 C_0p          8.1082    3.0277   16.5563 cs      1  lig       0.089209
     27 O_0q          9.1819    2.2163   17.0133 o5      1  lig      -0.435585
     28 C_0r          9.4160    2.4126   18.4009 ct      1  lig       0.134370
     29 C_0s          8.1644    1.9838   19.1874 cw      1  lig       0.017040
     30 C_0t          8.6677    9.0911   24.1045 cA      1  lig      -0.201154
     31 H_0u         11.5903    8.6723   24.6377 h0      1  lig       0.170105
     32 H_0v          8.2481    7.2197   28.0796 h6      1  lig       0.191203
     33 H_0w         10.7112    6.9151   28.4483 h7      1  lig       0.155695
     34 H_0x          6.1033    8.6335   21.6325 h8      1  lig       0.315303
     35 H_0y          5.5902    6.7259   23.7940 h9      1  lig       0.071777
     36 H_0z          3.3124    6.4951   23.0511 hb      1  lig       0.099371
     37 H_10          3.7540    6.8539   21.3792 hd      1  lig       0.099371
     38 H_11          4.2561    4.2854   22.9166 he      1  lig       0.106215
     39 H_12          3.7543    4.4797   21.2307 hf      1  lig       0.106215
     40 H_13          7.5263    3.7881   21.2212 hg      1  lig       0.088031
     41 H_14          6.5125    1.5233   21.3843 hh      1  lig       0.068505
     42 H_15          6.1346    2.4685   22.8040 hi      1  lig       0.068505
     43 H_16          4.9159    2.2205   21.5552 hj      1  lig       0.068505
     44 H_17          6.5824    1.5786   17.0799 hk      1  lig       0.061272
     45 H_18          5.9845    3.2068   16.9026 hl      1  lig       0.061272
     46 H_19          7.9881    2.8700   15.4866 hm      1  lig       0.059481
     47 H_1a          8.3308    4.0851   16.7066 hq      1  lig       0.059481
     48 H_1b         10.2715    1.8068   18.6967 hr      1  lig       0.052272
     49 H_1c          9.6761    3.4529   18.6036 ht      1  lig       0.052272
     50 H_1d          8.3718    2.0732   20.2476 hu      1  lig       0.046555
     51 H_1e          7.9532    0.9285   19.0096 hv      1  lig       0.046555
     52 H_1f          8.9811    9.5292   23.1683 hy      1  lig       0.202189
@<TRIPOS>BOND
     1     1     2    1
     2     2     3    2
     3     2     8    1
     4     3     4    1
     5     3    31    1
     6     4     5    2
     7     4    30    1
     8     5     6    1
     9     5     7    1
    10     6     9    1
    11     7     8    2
    12     7    32    1
    13     8    33    1
    14     9    10    1
    15     9    30    2
    16    10    11    2
    17    10    12    2
    18    10    13    1
    19    13    14    1
    20    13    34    1
    21    14    15    1
    22    14    17    1
    23    14    35    1
    24    15    16    1
    25    15    36    1
    26    15    37    1
    27    16    19    1
    28    16    38    1
    29    16    39    1
    30    17    18    2
    31    17    19    1
    32    19    20    1
    33    20    21    1
    34    20    22    1
    35    20    40    1
    36    21    41    1
    37    21    42    1
    38    21    43    1
    39    22    23    2
    40    22    24    1
    41    24    25    1
    42    24    29    1
    43    25    26    1
    44    25    44    1
    45    25    45    1
    46    26    27    1
    47    26    46    1
    48    26    47    1
    49    27    28    1
    50    28    29    1
    51    28    48    1
    52    28    49    1
    53    29    50    1
    54    29    51    1
    55    30    52    1
