@<TRIPOS>MOLECULE
lig
  51   54 0 0 0
SMALL
NO_CHARGES


@<TRIPOS>ATOM
      1 Cl00         13.0906    7.7401   26.3726 a0      1  lig      -0.123283
      2 C_01         11.3691    7.8378   26.3985 c4      1  lig       0.368887
      3 N_02         10.7381    8.3770   25.3189 n0      1  lig      -0.535461
      4 C_03          9.4023    8.4473   25.3518 c5      1  lig       0.479404
      5 C_04          8.6593    7.9730   26.4753 c6      1  lig      -0.072183
      6 S_05          6.9478    8.1871   26.2402 s0      1  lig      -0.016624
      7 C_06          9.3081    7.4180   27.5861 c7      1  lig      -0.106881
      8 C_07         10.6999    7.3584   27.5266 c8      1  lig      -0.223707
      9 C_08          7.2312    8.9142   24.6656 c9      1  lig      -0.090144
     10 S_09          5.7816    9.4510   23.7173 s1      1  lig       0.973208
     11 O_0a          4.6717    9.2587   24.6024 o0      1  lig      -0.487479
     12 O_0b          5.9649   10.7221   23.0627 o1      1  lig      -0.506642
     13 N_0c          5.6289    8.3253   22.4696 ng      1  lig      -0.588073
     14 C_0d          5.4417    6.9107   22.7309 cb      1  lig       0.193822
     15 C_0e          4.0870    6.3630   22.2954 ci      1  lig      -0.114544
     16 C_0f          4.3958    4.8831   22.0150 cj      1  lig      -0.160990
     17 C_0g          6.4070    6.0251   21.9629 ck      1  lig       0.329395
     18 O_0h          7.5766    6.3386   21.7509 o2      1  lig      -0.527659
     19 N_0i          5.8100    4.8683   21.6346 nr      1  lig      -0.008734
     20 C_0j          6.4608    3.6920   21.0252 cm      1  lig       0.047532
     21 C_0k          5.9763    2.4062   21.7276 cn      1  lig      -0.179125
     22 C_0l          6.2651    3.6316   19.4908 co      1  lig       0.376638
     23 O_0m          5.3887    4.3363   18.9859 o3      1  lig      -0.527107
     24 N_0n          7.0216    2.7913   18.7364 nw      1  lig      -0.156784
     25 C_0o          6.8197    2.6227   17.2899 cq      1  lig       0.029424
     26 C_0p          8.1082    3.0277   16.5563 cr      1  lig       0.076373
     27 O_0q          9.1819    2.2163   17.0133 o4      1  lig      -0.422381
     28 C_0r          9.4160    2.4126   18.4009 cs      1  lig       0.102028
     29 C_0s          8.1644    1.9838   19.1874 ct      1  lig       0.010982
     30 C_0t          8.5718    8.9804   24.3191 cw      1  lig      -0.218587
     31 H_0u          8.7521    7.0589   28.4421 h0      1  lig       0.214782
     32 H_0v         11.2608    6.9428   28.3508 h6      1  lig       0.147517
     33 H_0w          6.1033    8.6335   21.6325 h7      1  lig       0.348988
     34 H_0x          5.5902    6.7259   23.7940 h8      1  lig       0.021064
     35 H_0y          3.3124    6.4951   23.0511 h9      1  lig       0.095741
     36 H_0z          3.7540    6.8539   21.3792 hb      1  lig       0.095741
     37 H_10          4.2561    4.2854   22.9166 hd      1  lig       0.105229
     38 H_11          3.7543    4.4797   21.2307 he      1  lig       0.105229
     39 H_12          7.5263    3.7881   21.2212 hf      1  lig       0.081488
     40 H_13          6.5125    1.5233   21.3843 hg      1  lig       0.060918
     41 H_14          6.1346    2.4685   22.8040 hh      1  lig       0.060918
     42 H_15          4.9159    2.2205   21.5552 hi      1  lig       0.060918
     43 H_16          6.5824    1.5786   17.0799 hj      1  lig       0.062796
     44 H_17          5.9845    3.2068   16.9026 hk      1  lig       0.062796
     45 H_18          7.9881    2.8700   15.4866 hl      1  lig       0.061417
     46 H_19          8.3308    4.0851   16.7066 hm      1  lig       0.061417
     47 H_1a         10.2715    1.8068   18.6967 hq      1  lig       0.061194
     48 H_1b          9.6761    3.4529   18.6036 hr      1  lig       0.061194
     49 H_1c          8.3718    2.0732   20.2476 ht      1  lig       0.051934
     50 H_1d          7.9532    0.9285   19.0096 hu      1  lig       0.051934
     51 H_1e          8.9568    9.3852   23.3933 hv      1  lig       0.205480
@<TRIPOS>BOND
     1     1     2    1
     2     2     3    2
     3     2     8    1
     4     3     4    1
     5     4     5    2
     6     4    30    1
     7     5     6    1
     8     5     7    1
     9     6     9    1
    10     7     8    2
    11     7    31    1
    12     8    32    1
    13     9    10    1
    14     9    30    2
    15    10    11    2
    16    10    12    2
    17    10    13    1
    18    13    14    1
    19    13    33    1
    20    14    15    1
    21    14    17    1
    22    14    34    1
    23    15    16    1
    24    15    35    1
    25    15    36    1
    26    16    19    1
    27    16    37    1
    28    16    38    1
    29    17    18    2
    30    17    19    1
    31    19    20    1
    32    20    21    1
    33    20    22    1
    34    20    39    1
    35    21    40    1
    36    21    41    1
    37    21    42    1
    38    22    23    2
    39    22    24    1
    40    24    25    1
    41    24    29    1
    42    25    26    1
    43    25    43    1
    44    25    44    1
    45    26    27    1
    46    26    45    1
    47    26    46    1
    48    27    28    1
    49    28    29    1
    50    28    47    1
    51    28    48    1
    52    29    49    1
    53    29    50    1
    54    30    51    1
