@<TRIPOS>MOLECULE
LIG
  51   54 0 0 0
SMALL
NO_CHARGES


@<TRIPOS>ATOM
      1 Cl00         13.1451    7.6410   26.5994 a0      1  LIG      -0.099630
      2 C_01         11.4320    7.7992   26.4784 c4      1  LIG      -0.110124
      3 C_02         10.8557    8.3714   25.3410 c5      1  LIG      -0.041612
      4 C_03          9.4518    8.4822   25.2806 c6      1  LIG      -0.001699
      5 C_04          8.7249    7.9897   26.4086 c7      1  LIG       0.388533
      6 S_05          7.0043    8.1813   26.2110 s0      1  LIG      -0.069656
      7 N_06          9.2601    7.4382   27.5008 n0      1  LIG      -0.474359
      8 C_07         10.6137    7.3550   27.5161 c8      1  LIG       0.221587
      9 C_08          7.2490    8.9221   24.6417 c9      1  LIG      -0.139184
     10 S_09          5.7818    9.4508   23.7163 s1      1  LIG       1.018498
     11 O_0a          4.6717    9.2587   24.6024 o0      1  LIG      -0.479071
     12 O_0b          5.9649   10.7221   23.0627 o1      1  LIG      -0.526318
     13 N_0c          5.6289    8.3253   22.4696 ng      1  LIG      -0.709905
     14 C_0d          5.4417    6.9107   22.7309 cb      1  LIG       0.207111
     15 C_0e          4.0870    6.3630   22.2954 ci      1  LIG      -0.156275
     16 C_0f          4.3958    4.8831   22.0150 cj      1  LIG      -0.057439
     17 C_0g          6.4069    6.0251   21.9629 ck      1  LIG       0.406906
     18 O_0h          7.5767    6.3386   21.7509 o2      1  LIG      -0.559645
     19 N_0i          5.8100    4.8683   21.6346 nr      1  LIG      -0.115252
     20 C_0j          6.4608    3.6920   21.0252 cm      1  LIG       0.018527
     21 C_0k          5.9763    2.4062   21.7276 cn      1  LIG      -0.210481
     22 C_0l          6.2651    3.6316   19.4908 co      1  LIG       0.523412
     23 O_0m          5.3887    4.3363   18.9859 o3      1  LIG      -0.546183
     24 N_0n          7.0216    2.7913   18.7364 nw      1  LIG      -0.259669
     25 C_0o          6.8197    2.6227   17.2899 cq      1  LIG       0.015606
     26 C_0p          8.1082    3.0277   16.5563 cr      1  LIG       0.097570
     27 O_0q          9.1819    2.2163   17.0133 o4      1  LIG      -0.409812
     28 C_0r          9.4160    2.4126   18.4009 cs      1  LIG       0.126044
     29 C_0s          8.1644    1.9838   19.1874 ct      1  LIG      -0.032046
     30 C_0t          8.5813    9.0100   24.2745 cw      1  LIG      -0.156438
     31 H_0u         11.4797    8.7191   24.5317 h0      1  LIG       0.159882
     32 H_0v         11.0526    6.9119   28.3997 h6      1  LIG       0.103468
     33 H_0w          6.1033    8.6335   21.6325 h7      1  LIG       0.422970
     34 H_0x          5.5902    6.7259   23.7940 h8      1  LIG       0.108665
     35 H_0y          3.3124    6.4951   23.0511 h9      1  LIG       0.089387
     36 H_0z          3.7540    6.8539   21.3792 hb      1  LIG       0.089387
     37 H_10          4.2561    4.2854   22.9166 hd      1  LIG       0.075491
     38 H_11          3.7543    4.4797   21.2307 he      1  LIG       0.075491
     39 H_12          7.5263    3.7881   21.2212 hf      1  LIG       0.111933
     40 H_13          6.5125    1.5233   21.3843 hg      1  LIG       0.066050
     41 H_14          6.1346    2.4685   22.8040 hh      1  LIG       0.066050
     42 H_15          4.9159    2.2205   21.5552 hi      1  LIG       0.066050
     43 H_16          6.5824    1.5786   17.0799 hj      1  LIG       0.069628
     44 H_17          5.9845    3.2068   16.9026 hk      1  LIG       0.069628
     45 H_18          7.9881    2.8700   15.4866 hl      1  LIG       0.059330
     46 H_19          8.3308    4.0851   16.7066 hm      1  LIG       0.059330
     47 H_1a         10.2715    1.8068   18.6967 hq      1  LIG       0.048116
     48 H_1b          9.6761    3.4529   18.6036 hr      1  LIG       0.048116
     49 H_1c          8.3718    2.0732   20.2476 ht      1  LIG       0.074604
     50 H_1d          7.9532    0.9285   19.0096 hu      1  LIG       0.074604
     51 H_1e          8.9161    9.4333   23.3403 hv      1  LIG       0.192826
@<TRIPOS>BOND
     1     1     2    1
     2     2     3    2
     3     2     8    1
     4     3     4    1
     5     3    31    1
     6     4     5    2
     7     4    30    1
     8     5     6    1
     9     5     7    1
    10     6     9    1
    11     7     8    2
    12     8    32    1
    13     9    10    1
    14     9    30    2
    15    10    11    2
    16    10    12    2
    17    10    13    1
    18    13    14    1
    19    13    33    1
    20    14    15    1
    21    14    17    1
    22    14    34    1
    23    15    16    1
    24    15    35    1
    25    15    36    1
    26    16    19    1
    27    16    37    1
    28    16    38    1
    29    17    18    2
    30    17    19    1
    31    19    20    1
    32    20    21    1
    33    20    22    1
    34    20    39    1
    35    21    40    1
    36    21    41    1
    37    21    42    1
    38    22    23    2
    39    22    24    1
    40    24    25    1
    41    24    29    1
    42    25    26    1
    43    25    43    1
    44    25    44    1
    45    26    27    1
    46    26    45    1
    47    26    46    1
    48    27    28    1
    49    28    29    1
    50    28    47    1
    51    28    48    1
    52    29    49    1
    53    29    50    1
    54    30    51    1
