@<TRIPOS>MOLECULE
lig
  70   74 0 0 0
SMALL
NO_CHARGES


@<TRIPOS>ATOM
      1 C_00         10.5476    8.4506   25.1753 c4      1  lig       0.106546
      2 Cl01         14.1114    7.5055   26.7651 a0      1  lig      -0.114385
      3 C_02          9.6365    7.9856   26.1720 c5      1  lig       0.143202
      4 C_03          8.2431    8.1425   25.9634 c6      1  lig      -0.158433
      5 C_04          7.7649    8.7351   24.7926 c7      1  lig      -0.031090
      6 C_05          8.6720    9.2067   23.8334 c8      1  lig      -0.114002
      7 C_06         10.0425    9.0659   24.0088 c9      1  lig      -0.288091
      8 C_07         10.1519    7.3777   27.3425 cb      1  lig      -0.271569
      9 C_08         11.5291    7.2397   27.5119 ci      1  lig      -0.049068
     10 C_09         12.4131    7.6893   26.5370 cj      1  lig      -0.016362
     11 C_0a         11.9383    8.2884   25.3766 ck      1  lig      -0.108284
     12 C_0b          6.2877    8.8237   24.5372 cm      1  lig       0.518820
     13 N_0c          5.9552    8.4856   23.2993 n0      1  lig      -0.372185
     14 C_0d          4.5920    8.5353   22.7929 cn      1  lig       0.010947
     15 O_0e          5.4502    9.1670   25.3673 o0      1  lig      -0.557904
     16 C_0f          4.0043    7.1129   22.7896 co      1  lig       0.008267
     17 C_0g          2.5673    7.1154   22.2131 cq      1  lig      -0.141846
     18 C_0h          2.5176    7.7475   20.7918 cr      1  lig       0.058125
     19 C_0i          3.0858    9.1974   20.8187 cs      1  lig      -0.070648
     20 C_0j          4.5136    9.2181   21.4048 ct      1  lig      -0.012731
     21 N_0k          4.9086    6.2189   22.0719 ng      1  lig      -0.091596
     22 C_0l          4.9261    4.8943   22.1857 cw      1  lig       0.508472
     23 C_0m          5.6646    4.2415   21.1209 cA      1  lig       0.084329
     24 O_0n          4.2645    4.2831   23.0259 o1      1  lig      -0.529266
     25 N_0o          6.1759    4.7911   20.0362 nr      1  lig      -0.389419
     26 S_0p          6.0592    2.5553   21.3175 s0      1  lig      -0.020660
     27 H_0q          7.5481    7.7767   26.7093 h0      1  lig       0.155717
     28 H_0r         10.7252    9.4288   23.2541 h6      1  lig       0.180836
     29 H_0s          9.4691    7.0238   28.1021 h7      1  lig       0.178199
     30 H_0t         11.9223    6.7796   28.4067 h8      1  lig       0.136301
     31 H_0u         12.6330    8.6330   24.6255 h9      1  lig       0.133159
     32 H_0v          6.7023    8.2545   22.6620 hb      1  lig       0.186902
     33 H_0w          3.9673    9.1381   23.4619 hd      1  lig       0.128791
     34 H_0x          5.4908    6.6207   21.3529 he      1  lig       0.102190
     35 C_0y          6.9158    3.9548   19.3541 cB      1  lig       0.223091
     36 C_0z          7.0250    2.6811   19.8872 cC      1  lig      -0.049618
     37 C_10          7.9001    1.6220   19.2816 cD      1  lig       0.020245
     38 N_11          7.9386    1.8694   17.8345 nw      1  lig      -0.371734
     39 C_12          8.5061    3.1995   17.5565 cE      1  lig       0.024061
     40 C_13          7.5778    4.3412   18.0470 cF      1  lig      -0.227741
     41 C_14          8.7498    0.8506   17.1984 cG      1  lig      -0.017705
     42 H_15          7.4924    0.6421   19.5037 hf      1  lig       0.091992
     43 H_16          8.8987    1.6411   19.7244 hg      1  lig       0.091992
     44 H_17          8.6778    3.3302   16.4860 hh      1  lig       0.061028
     45 H_18          9.4902    3.2989   18.0226 hi      1  lig       0.061028
     46 H_19          8.1484    5.2601   18.1569 hj      1  lig       0.108442
     47 H_1a          6.8161    4.5354   17.2926 hk      1  lig       0.108442
     48 H_1b          8.8052    1.0695   16.1341 hl      1  lig       0.050986
     49 H_1c          9.7610    0.8192   17.6086 hm      1  lig       0.050986
     50 H_1d          8.3099   -0.1391   17.3015 hq      1  lig       0.050986
     51 C_1e          1.0676    7.6910   20.2329 cH      1  lig       0.361315
     52 O_1f          0.3104    8.6412   20.4535 o2      1  lig      -0.534234
     53 N_1g          0.6523    6.6056   19.5256 nA      1  lig      -0.091314
     54 C_1h         -0.6704    6.5489   18.8879 cI      1  lig      -0.040633
     55 C_1i          1.4912    5.4400   19.2160 cJ      1  lig      -0.275991
     56 H_1j          1.9149    7.6716   22.8889 hr      1  lig       0.073125
     57 H_1k          2.1778    6.0972   22.2014 ht      1  lig       0.073125
     58 H_1l          3.1372    7.1752   20.1018 hu      1  lig       0.035373
     59 H_1m          2.4464    9.8436   21.4236 hv      1  lig       0.050206
     60 H_1n          3.0887    9.6253   19.8165 hy      1  lig       0.050206
     61 H_1o          5.1953    8.7264   20.7088 hz      1  lig       0.023978
     62 H_1p          4.8606   10.2500   21.4809 hA      1  lig       0.023978
     63 H_1q         -1.1846    5.6238   19.1522 hB      1  lig       0.056436
     64 H_1r         -1.3260    7.3725   19.1766 hC      1  lig       0.056436
     65 H_1s         -0.5707    6.5750   17.8018 hD      1  lig       0.056436
     66 H_1t          2.0145    5.5847   18.2697 hE      1  lig       0.101385
     67 H_1u          2.2331    5.2304   19.9873 hF      1  lig       0.101385
     68 H_1v          0.8860    4.5368   19.1237 hG      1  lig       0.101385
     69 H_1w          3.9555    6.7753   23.8306 hH      1  lig       0.063336
     70 H_1x          8.3161    9.6857   22.9319 hI      1  lig       0.134322
@<TRIPOS>BOND
     1     1     3    1
     2     1     7    2
     3     1    11    1
     4     2    10    1
     5     3     4    2
     6     3     8    1
     7     4     5    1
     8     4    27    1
     9     5     6    2
    10     5    12    1
    11     6     7    1
    12     6    70    1
    13     7    28    1
    14     8     9    2
    15     8    29    1
    16     9    10    1
    17     9    30    1
    18    10    11    2
    19    11    31    1
    20    12    13    1
    21    12    15    2
    22    13    14    1
    23    13    32    1
    24    14    16    1
    25    14    20    1
    26    14    33    1
    27    16    17    1
    28    16    21    1
    29    16    69    1
    30    17    18    1
    31    17    56    1
    32    17    57    1
    33    18    19    1
    34    18    51    1
    35    18    58    1
    36    19    20    1
    37    19    59    1
    38    19    60    1
    39    20    61    1
    40    20    62    1
    41    21    22    1
    42    21    34    1
    43    22    23    1
    44    22    24    2
    45    23    25    2
    46    23    26    1
    47    25    35    1
    48    26    36    1
    49    35    36    2
    50    35    40    1
    51    36    37    1
    52    37    38    1
    53    37    42    1
    54    37    43    1
    55    38    39    1
    56    38    41    1
    57    39    40    1
    58    39    44    1
    59    39    45    1
    60    40    46    1
    61    40    47    1
    62    41    48    1
    63    41    49    1
    64    41    50    1
    65    51    52    2
    66    51    53    1
    67    53    54    1
    68    53    55    1
    69    54    63    1
    70    54    64    1
    71    54    65    1
    72    55    66    1
    73    55    67    1
    74    55    68    1
