@<TRIPOS>MOLECULE
lig
  69   73 0 0 0
SMALL
NO_CHARGES


@<TRIPOS>ATOM
      1 C_00         10.5203    8.4433   25.1852 c4      1  lig       0.101318
      2 Cl01         14.1059    7.5218   26.7353 a0      1  lig      -0.107782
      3 C_02          9.6207    7.9857   26.1956 c5      1  lig       0.129746
      4 C_03          8.2267    8.1460   25.9973 c6      1  lig      -0.187602
      5 C_04          7.7732    8.7180   24.8067 c7      1  lig       0.187416
      6 N_05          8.6217    9.1490   23.8295 n0      1  lig      -0.312925
      7 C_06          9.9499    9.0256   24.0349 c8      1  lig      -0.021693
      8 C_07         10.1509    7.3804   27.3597 c9      1  lig      -0.269764
      9 C_08         11.5311    7.2465   27.5105 cb      1  lig      -0.029190
     10 C_09         12.4039    7.6999   26.5246 ci      1  lig      -0.000307
     11 C_0a         11.9152    8.2949   25.3658 cj      1  lig      -0.154425
     12 C_0b          6.2929    8.8274   24.5343 ck      1  lig       0.390946
     13 N_0c          5.9551    8.4855   23.2994 ng      1  lig      -0.166941
     14 C_0d          4.5920    8.5353   22.7929 cm      1  lig       0.001153
     15 O_0e          5.4501    9.1670   25.3673 o0      1  lig      -0.552096
     16 C_0f          4.0043    7.1129   22.7895 cn      1  lig       0.003061
     17 C_0g          2.5673    7.1162   22.2122 co      1  lig      -0.147243
     18 C_0h          2.5176    7.7475   20.7918 cq      1  lig       0.080669
     19 C_0i          3.0852    9.1956   20.8192 cr      1  lig      -0.043870
     20 C_0j          4.5136    9.2181   21.4048 cs      1  lig      -0.021480
     21 N_0k          4.9085    6.2184   22.0719 nr      1  lig      -0.016283
     22 C_0l          4.9264    4.8949   22.1858 ct      1  lig       0.467699
     23 C_0m          5.6646    4.2415   21.1209 cw      1  lig       0.099485
     24 O_0n          4.2645    4.2831   23.0259 o1      1  lig      -0.523378
     25 N_0o          6.1759    4.7911   20.0362 nw      1  lig      -0.425824
     26 S_0p          6.0592    2.5553   21.3175 s0      1  lig      -0.019002
     27 H_0q          7.5261    7.7992   26.7421 h0      1  lig       0.155311
     28 H_0r         10.5891    9.3955   23.2463 h6      1  lig       0.136921
     29 H_0s          9.4762    7.0241   28.1243 h7      1  lig       0.183707
     30 H_0t         11.9341    6.7846   28.3999 h8      1  lig       0.137422
     31 H_0u         12.5961    8.6409   24.6029 h9      1  lig       0.152045
     32 H_0v          6.7023    8.2545   22.6620 hb      1  lig       0.042503
     33 H_0w          3.9674    9.1381   23.4619 hd      1  lig       0.118086
     34 H_0x          5.4908    6.6206   21.3529 he      1  lig       0.133214
     35 C_0y          6.9158    3.9548   19.3541 cA      1  lig       0.244022
     36 C_0z          7.0250    2.6811   19.8872 cB      1  lig      -0.059245
     37 C_10          7.9001    1.6220   19.2816 cC      1  lig       0.019945
     38 N_11          7.9386    1.8694   17.8345 nA      1  lig      -0.384461
     39 C_12          8.5061    3.1995   17.5565 cD      1  lig       0.044646
     40 C_13          7.5778    4.3412   18.0470 cE      1  lig      -0.231426
     41 C_14          8.7498    0.8506   17.1984 cF      1  lig      -0.005634
     42 H_15          7.4924    0.6421   19.5037 hf      1  lig       0.093000
     43 H_16          8.8987    1.6411   19.7244 hg      1  lig       0.093000
     44 H_17          8.6778    3.3302   16.4860 hh      1  lig       0.054563
     45 H_18          9.4902    3.2989   18.0226 hi      1  lig       0.054563
     46 H_19          8.1484    5.2601   18.1569 hj      1  lig       0.109123
     47 H_1a          6.8161    4.5354   17.2926 hk      1  lig       0.109123
     48 H_1b          8.8052    1.0695   16.1341 hl      1  lig       0.047542
     49 H_1c          9.7610    0.8192   17.6086 hm      1  lig       0.047542
     50 H_1d          8.3099   -0.1391   17.3015 hq      1  lig       0.047542
     51 C_1e          1.0676    7.6910   20.2329 cG      1  lig       0.360956
     52 O_1f          0.3104    8.6412   20.4535 o2      1  lig      -0.543995
     53 N_1g          0.6523    6.6056   19.5256 nB      1  lig      -0.086306
     54 C_1h         -0.6704    6.5489   18.8879 cH      1  lig      -0.044937
     55 C_1i          1.4912    5.4400   19.2160 cI      1  lig      -0.217392
     56 H_1j          1.9149    7.6716   22.8889 hr      1  lig       0.068856
     57 H_1k          2.1778    6.0972   22.2014 ht      1  lig       0.068856
     58 H_1l          3.1372    7.1752   20.1018 hu      1  lig      -0.002831
     59 H_1m          2.4464    9.8436   21.4236 hv      1  lig       0.044859
     60 H_1n          3.0887    9.6253   19.8165 hy      1  lig       0.044859
     61 H_1o          5.1953    8.7263   20.7088 hz      1  lig       0.015996
     62 H_1p          4.8606   10.2500   21.4809 hA      1  lig       0.015996
     63 H_1q         -1.1846    5.6238   19.1522 hB      1  lig       0.056400
     64 H_1r         -1.3260    7.3725   19.1766 hC      1  lig       0.056400
     65 H_1s         -0.5707    6.5750   17.8018 hD      1  lig       0.056400
     66 H_1t          2.0145    5.5847   18.2697 hE      1  lig       0.083458
     67 H_1u          2.2331    5.2304   19.9873 hF      1  lig       0.083458
     68 H_1v          0.8860    4.5368   19.1237 hG      1  lig       0.083458
     69 H_1w          3.9555    6.7753   23.8306 hH      1  lig       0.050767
@<TRIPOS>BOND
     1     1     3    1
     2     1     7    2
     3     1    11    1
     4     2    10    1
     5     3     4    2
     6     3     8    1
     7     4     5    1
     8     4    27    1
     9     5     6    2
    10     5    12    1
    11     6     7    1
    12     7    28    1
    13     8     9    2
    14     8    29    1
    15     9    10    1
    16     9    30    1
    17    10    11    2
    18    11    31    1
    19    12    13    1
    20    12    15    2
    21    13    14    1
    22    13    32    1
    23    14    16    1
    24    14    20    1
    25    14    33    1
    26    16    17    1
    27    16    21    1
    28    16    69    1
    29    17    18    1
    30    17    56    1
    31    17    57    1
    32    18    19    1
    33    18    51    1
    34    18    58    1
    35    19    20    1
    36    19    59    1
    37    19    60    1
    38    20    61    1
    39    20    62    1
    40    21    22    1
    41    21    34    1
    42    22    23    1
    43    22    24    2
    44    23    25    2
    45    23    26    1
    46    25    35    1
    47    26    36    1
    48    35    36    2
    49    35    40    1
    50    36    37    1
    51    37    38    1
    52    37    42    1
    53    37    43    1
    54    38    39    1
    55    38    41    1
    56    39    40    1
    57    39    44    1
    58    39    45    1
    59    40    46    1
    60    40    47    1
    61    41    48    1
    62    41    49    1
    63    41    50    1
    64    51    52    2
    65    51    53    1
    66    53    54    1
    67    53    55    1
    68    54    63    1
    69    54    64    1
    70    54    65    1
    71    55    66    1
    72    55    67    1
    73    55    68    1
