@<TRIPOS>MOLECULE
lig
  69   73 0 0 0
SMALL
NO_CHARGES


@<TRIPOS>ATOM
      1 C_00         10.4852    8.4466   25.1728 c4      1  lig       0.413994
      2 Cl01         14.0845    7.5443   26.6930 a0      1  lig      -0.098519
      3 C_02          9.6006    7.9727   26.1906 c5      1  lig       0.019123
      4 C_03          8.2085    8.1224   25.9864 c6      1  lig      -0.065895
      5 C_04          7.7534    8.7187   24.8096 c7      1  lig      -0.081122
      6 C_05          8.6952    9.1700   23.8777 c8      1  lig       0.203055
      7 N_06         10.0346    9.0389   24.0345 n0      1  lig      -0.585458
      8 C_07         10.1389    7.3711   27.3539 c9      1  lig      -0.282530
      9 C_08         11.5208    7.2510   27.4924 cb      1  lig      -0.055767
     10 C_09         12.3795    7.7089   26.4961 ci      1  lig      -0.022373
     11 C_0a         11.8760    8.3006   25.3415 cj      1  lig      -0.143240
     12 C_0b          6.2859    8.8272   24.5338 ck      1  lig       0.450747
     13 N_0c          5.9552    8.4855   23.2994 ng      1  lig      -0.349935
     14 C_0d          4.5920    8.5353   22.7929 cm      1  lig       0.023507
     15 O_0e          5.4501    9.1670   25.3672 o0      1  lig      -0.542927
     16 C_0f          4.0043    7.1129   22.7895 cn      1  lig       0.007348
     17 C_0g          2.5673    7.1162   22.2122 co      1  lig      -0.153279
     18 C_0h          2.5176    7.7475   20.7918 cq      1  lig       0.057163
     19 C_0i          3.0852    9.1956   20.8192 cr      1  lig      -0.078745
     20 C_0j          4.5136    9.2181   21.4048 cs      1  lig      -0.024972
     21 N_0k          4.9085    6.2185   22.0719 nr      1  lig      -0.065836
     22 C_0l          4.9264    4.8949   22.1858 ct      1  lig       0.496334
     23 C_0m          5.6646    4.2415   21.1209 cw      1  lig       0.090663
     24 O_0n          4.2645    4.2831   23.0259 o1      1  lig      -0.528128
     25 N_0o          6.1759    4.7911   20.0362 nw      1  lig      -0.398359
     26 S_0p          6.0592    2.5553   21.3175 s0      1  lig      -0.015268
     27 H_0q          7.5093    7.7647   26.7272 h0      1  lig       0.159965
     28 H_0r          9.4705    7.0122   28.1241 h6      1  lig       0.191916
     29 H_0s         11.9347    6.7982   28.3816 h7      1  lig       0.141208
     30 H_0t         12.5343    8.6569   24.5645 h8      1  lig       0.144302
     31 H_0u          6.7023    8.2545   22.6620 h9      1  lig       0.168641
     32 H_0v          3.9673    9.1381   23.4619 hb      1  lig       0.134013
     33 H_0w          5.4908    6.6206   21.3529 hd      1  lig       0.098189
     34 C_0x          6.9158    3.9548   19.3541 cA      1  lig       0.239703
     35 C_0y          7.0250    2.6811   19.8872 cB      1  lig      -0.060150
     36 C_0z          7.9001    1.6220   19.2816 cC      1  lig       0.003253
     37 N_10          7.9386    1.8694   17.8345 nA      1  lig      -0.371081
     38 C_11          8.5061    3.1995   17.5565 cD      1  lig       0.025326
     39 C_12          7.5778    4.3412   18.0470 cE      1  lig      -0.225532
     40 C_13          8.7498    0.8506   17.1984 cF      1  lig      -0.023100
     41 H_14          7.4924    0.6421   19.5037 he      1  lig       0.098534
     42 H_15          8.8987    1.6411   19.7244 hf      1  lig       0.098534
     43 H_16          8.6778    3.3302   16.4860 hg      1  lig       0.061937
     44 H_17          9.4902    3.2989   18.0226 hh      1  lig       0.061937
     45 H_18          8.1484    5.2601   18.1569 hi      1  lig       0.106441
     46 H_19          6.8161    4.5354   17.2926 hj      1  lig       0.106441
     47 H_1a          8.8052    1.0695   16.1341 hk      1  lig       0.052565
     48 H_1b          9.7610    0.8192   17.6086 hl      1  lig       0.052565
     49 H_1c          8.3099   -0.1391   17.3015 hm      1  lig       0.052565
     50 C_1d          1.0676    7.6910   20.2329 cG      1  lig       0.369332
     51 O_1e          0.3104    8.6412   20.4535 o2      1  lig      -0.536031
     52 N_1f          0.6523    6.6056   19.5256 nB      1  lig      -0.100089
     53 C_1g         -0.6704    6.5489   18.8879 cH      1  lig      -0.041291
     54 C_1h          1.4912    5.4400   19.2160 cI      1  lig      -0.257231
     55 H_1i          1.9149    7.6716   22.8889 hq      1  lig       0.075560
     56 H_1j          2.1778    6.0972   22.2014 hr      1  lig       0.075560
     57 H_1k          3.1372    7.1752   20.1018 ht      1  lig       0.036131
     58 H_1l          2.4464    9.8436   21.4236 hu      1  lig       0.053253
     59 H_1m          3.0887    9.6253   19.8165 hv      1  lig       0.053253
     60 H_1n          5.1953    8.7263   20.7088 hy      1  lig       0.026728
     61 H_1o          4.8606   10.2500   21.4809 hz      1  lig       0.026728
     62 H_1p         -1.1846    5.6238   19.1522 hA      1  lig       0.057461
     63 H_1q         -1.3260    7.3725   19.1766 hB      1  lig       0.057461
     64 H_1r         -0.5707    6.5750   17.8018 hC      1  lig       0.057461
     65 H_1s          2.0145    5.5847   18.2697 hD      1  lig       0.096437
     66 H_1t          2.2331    5.2304   19.9873 hE      1  lig       0.096437
     67 H_1u          0.8860    4.5368   19.1237 hF      1  lig       0.096437
     68 H_1v          3.9555    6.7753   23.8306 hG      1  lig       0.060626
     69 H_1w          8.3859    9.6593   22.9595 hH      1  lig       0.108024
@<TRIPOS>BOND
     1     1     3    1
     2     1     7    2
     3     1    11    1
     4     2    10    1
     5     3     4    2
     6     3     8    1
     7     4     5    1
     8     4    27    1
     9     5     6    2
    10     5    12    1
    11     6     7    1
    12     6    69    1
    13     8     9    2
    14     8    28    1
    15     9    10    1
    16     9    29    1
    17    10    11    2
    18    11    30    1
    19    12    13    1
    20    12    15    2
    21    13    14    1
    22    13    31    1
    23    14    16    1
    24    14    20    1
    25    14    32    1
    26    16    17    1
    27    16    21    1
    28    16    68    1
    29    17    18    1
    30    17    55    1
    31    17    56    1
    32    18    19    1
    33    18    50    1
    34    18    57    1
    35    19    20    1
    36    19    58    1
    37    19    59    1
    38    20    60    1
    39    20    61    1
    40    21    22    1
    41    21    33    1
    42    22    23    1
    43    22    24    2
    44    23    25    2
    45    23    26    1
    46    25    34    1
    47    26    35    1
    48    34    35    2
    49    34    39    1
    50    35    36    1
    51    36    37    1
    52    36    41    1
    53    36    42    1
    54    37    38    1
    55    37    40    1
    56    38    39    1
    57    38    43    1
    58    38    44    1
    59    39    45    1
    60    39    46    1
    61    40    47    1
    62    40    48    1
    63    40    49    1
    64    50    51    2
    65    50    52    1
    66    52    53    1
    67    52    54    1
    68    53    62    1
    69    53    63    1
    70    53    64    1
    71    54    65    1
    72    54    66    1
    73    54    67    1
