@<TRIPOS>MOLECULE
lig
  68   72 0 0 0
SMALL
NO_CHARGES


@<TRIPOS>ATOM
      1 C_00         10.4540    8.4403   25.1813 c4      1  lig       0.525005
      2 Cl01         14.0736    7.5521   26.6740 a0      1  lig      -0.087374
      3 C_02          9.5845    7.9813   26.2141 c5      1  lig      -0.008421
      4 C_03          8.1954    8.1425   26.0223 c6      1  lig      -0.086284
      5 C_04          7.7641    8.7057   24.8242 c7      1  lig       0.163982
      6 N_05          8.6394    9.1201   23.8643 n0      1  lig      -0.003967
      7 N_06          9.9648    9.0033   24.0412 ng      1  lig      -0.487013
      8 C_07         10.1361    7.3824   27.3715 c8      1  lig      -0.291038
      9 C_08         11.5195    7.2567   27.4954 c9      1  lig      -0.039580
     10 C_09         12.3674    7.7161   26.4914 cb      1  lig      -0.011756
     11 C_0a         11.8511    8.3035   25.3399 ci      1  lig      -0.205020
     12 C_0b          6.2932    8.8290   24.5345 cj      1  lig       0.327209
     13 N_0c          5.9552    8.4855   23.2993 nr      1  lig      -0.152213
     14 C_0d          4.5920    8.5353   22.7929 ck      1  lig       0.046816
     15 O_0e          5.4501    9.1670   25.3672 o0      1  lig      -0.537684
     16 C_0f          4.0043    7.1129   22.7895 cm      1  lig       0.008841
     17 C_0g          2.5673    7.1162   22.2122 cn      1  lig      -0.166017
     18 C_0h          2.5176    7.7475   20.7918 co      1  lig       0.067447
     19 C_0i          3.0852    9.1956   20.8192 cq      1  lig      -0.044984
     20 C_0j          4.5136    9.2180   21.4048 cr      1  lig      -0.021048
     21 N_0k          4.9084    6.2185   22.0720 nw      1  lig       0.002804
     22 C_0l          4.9264    4.8949   22.1858 cs      1  lig       0.447925
     23 C_0m          5.6646    4.2415   21.1209 ct      1  lig       0.112876
     24 O_0n          4.2645    4.2831   23.0259 o1      1  lig      -0.518698
     25 N_0o          6.1759    4.7911   20.0362 nA      1  lig      -0.447899
     26 S_0p          6.0592    2.5553   21.3175 s0      1  lig      -0.015366
     27 H_0q          7.4893    7.8069   26.7652 h0      1  lig       0.156363
     28 H_0r          9.4770    7.0235   28.1495 h6      1  lig       0.203388
     29 H_0s         11.9450    6.7989   28.3760 h7      1  lig       0.146245
     30 H_0t         12.5124    8.6547   24.5623 h8      1  lig       0.166760
     31 H_0u          6.7023    8.2545   22.6620 h9      1  lig       0.002877
     32 H_0v          3.9673    9.1381   23.4619 hb      1  lig       0.111791
     33 H_0w          5.4908    6.6206   21.3529 hd      1  lig       0.143305
     34 C_0x          6.9158    3.9548   19.3541 cw      1  lig       0.260420
     35 C_0y          7.0250    2.6811   19.8872 cA      1  lig      -0.070977
     36 C_0z          7.9001    1.6220   19.2816 cB      1  lig       0.014105
     37 N_10          7.9386    1.8694   17.8345 nB      1  lig      -0.382240
     38 C_11          8.5061    3.1995   17.5565 cC      1  lig       0.025667
     39 C_12          7.5778    4.3412   18.0470 cD      1  lig      -0.209279
     40 C_13          8.7498    0.8506   17.1984 cE      1  lig      -0.021827
     41 H_14          7.4924    0.6421   19.5037 he      1  lig       0.096577
     42 H_15          8.8987    1.6411   19.7244 hf      1  lig       0.096577
     43 H_16          8.6778    3.3302   16.4860 hg      1  lig       0.060592
     44 H_17          9.4902    3.2989   18.0226 hh      1  lig       0.060592
     45 H_18          8.1484    5.2601   18.1569 hi      1  lig       0.102664
     46 H_19          6.8161    4.5354   17.2926 hj      1  lig       0.102664
     47 H_1a          8.8052    1.0695   16.1341 hk      1  lig       0.052177
     48 H_1b          9.7610    0.8192   17.6086 hl      1  lig       0.052177
     49 H_1c          8.3099   -0.1391   17.3015 hm      1  lig       0.052177
     50 C_1d          1.0676    7.6910   20.2329 cF      1  lig       0.388253
     51 O_1e          0.3104    8.6412   20.4535 o2      1  lig      -0.547982
     52 N_1f          0.6523    6.6056   19.5256 nC      1  lig      -0.106222
     53 C_1g         -0.6704    6.5489   18.8879 cG      1  lig      -0.047584
     54 C_1h          1.4912    5.4400   19.2160 cH      1  lig      -0.192105
     55 H_1i          1.9149    7.6716   22.8889 hq      1  lig       0.071176
     56 H_1j          2.1778    6.0972   22.2014 hr      1  lig       0.071176
     57 H_1k          3.1372    7.1752   20.1018 ht      1  lig      -0.004614
     58 H_1l          2.4464    9.8436   21.4236 hu      1  lig       0.043210
     59 H_1m          3.0887    9.6253   19.8165 hv      1  lig       0.043210
     60 H_1n          5.1953    8.7264   20.7088 hy      1  lig       0.013467
     61 H_1o          4.8606   10.2500   21.4809 hz      1  lig       0.013467
     62 H_1p         -1.1846    5.6238   19.1522 hA      1  lig       0.057848
     63 H_1q         -1.3260    7.3725   19.1766 hB      1  lig       0.057848
     64 H_1r         -0.5707    6.5750   17.8018 hC      1  lig       0.057848
     65 H_1s          2.0145    5.5847   18.2697 hD      1  lig       0.078314
     66 H_1t          2.2331    5.2304   19.9873 hE      1  lig       0.078314
     67 H_1u          0.8860    4.5368   19.1237 hF      1  lig       0.078314
     68 H_1v          3.9555    6.7753   23.8306 hG      1  lig       0.044724
@<TRIPOS>BOND
     1     1     3    1
     2     1     7    2
     3     1    11    1
     4     2    10    1
     5     3     4    2
     6     3     8    1
     7     4     5    1
     8     4    27    1
     9     5     6    2
    10     5    12    1
    11     6     7    1
    12     8     9    2
    13     8    28    1
    14     9    10    1
    15     9    29    1
    16    10    11    2
    17    11    30    1
    18    12    13    1
    19    12    15    2
    20    13    14    1
    21    13    31    1
    22    14    16    1
    23    14    20    1
    24    14    32    1
    25    16    17    1
    26    16    21    1
    27    16    68    1
    28    17    18    1
    29    17    55    1
    30    17    56    1
    31    18    19    1
    32    18    50    1
    33    18    57    1
    34    19    20    1
    35    19    58    1
    36    19    59    1
    37    20    60    1
    38    20    61    1
    39    21    22    1
    40    21    33    1
    41    22    23    1
    42    22    24    2
    43    23    25    2
    44    23    26    1
    45    25    34    1
    46    26    35    1
    47    34    35    2
    48    34    39    1
    49    35    36    1
    50    36    37    1
    51    36    41    1
    52    36    42    1
    53    37    38    1
    54    37    40    1
    55    38    39    1
    56    38    43    1
    57    38    44    1
    58    39    45    1
    59    39    46    1
    60    40    47    1
    61    40    48    1
    62    40    49    1
    63    50    51    2
    64    50    52    1
    65    52    53    1
    66    52    54    1
    67    53    62    1
    68    53    63    1
    69    53    64    1
    70    54    65    1
    71    54    66    1
    72    54    67    1
