@<TRIPOS>MOLECULE
lig
  70   74 0 0 0
SMALL
NO_CHARGES


@<TRIPOS>ATOM
      1 C_00         10.4926    8.4520   25.1751 c4      1  lig       0.281086
      2 Cl01         14.0596    7.5327   26.7131 a0      1  lig      -0.102991
      3 C_02          9.6021    8.0025   26.1549 c5      1  lig       0.032103
      4 C_03          8.1703    8.1644   25.9229 c6      1  lig      -0.133885
      5 C_04          7.7114    8.7110   24.7878 c7      1  lig      -0.025069
      6 C_05          8.6861    9.2272   23.7127 c8      1  lig       0.083507
      7 O_06         10.0930    9.0567   24.0003 o0      1  lig      -0.382270
      8 C_07         10.1002    7.4005   27.3154 c9      1  lig      -0.228579
      9 C_08         11.4798    7.2596   27.4854 cb      1  lig      -0.107291
     10 C_09         12.3587    7.7105   26.5005 ci      1  lig      -0.022295
     11 C_0a         11.8646    8.3053   25.3436 cj      1  lig      -0.143407
     12 C_0b          6.2931    8.8282   24.5378 ck      1  lig       0.382278
     13 N_0c          5.9552    8.4855   23.2994 n0      1  lig      -0.207564
     14 C_0d          4.5920    8.5353   22.7929 cm      1  lig      -0.067166
     15 O_0e          5.4501    9.1670   25.3672 o1      1  lig      -0.555405
     16 C_0f          4.0043    7.1129   22.7895 cn      1  lig      -0.037465
     17 C_0g          2.5673    7.1162   22.2122 co      1  lig      -0.138641
     18 C_0h          2.5176    7.7475   20.7918 cq      1  lig       0.142460
     19 C_0i          3.0852    9.1956   20.8192 cr      1  lig      -0.133424
     20 C_0j          4.5136    9.2181   21.4048 cs      1  lig       0.024543
     21 N_0k          4.9085    6.2185   22.0719 ng      1  lig      -0.146790
     22 C_0l          4.9264    4.8949   22.1858 ct      1  lig       0.440965
     23 C_0m          5.6646    4.2415   21.1209 cw      1  lig       0.154252
     24 O_0n          4.2645    4.2831   23.0259 o2      1  lig      -0.504847
     25 N_0o          6.1759    4.7911   20.0362 nr      1  lig      -0.372845
     26 S_0p          6.0592    2.5553   21.3175 s0      1  lig      -0.027391
     27 H_0q          7.4664    7.8072   26.6656 h0      1  lig       0.162115
     28 H_0r          9.4304    7.0407   28.0837 h6      1  lig       0.182109
     29 H_0s         11.8759    6.8003   28.3789 h7      1  lig       0.146012
     30 H_0t         12.5378    8.6543   24.5768 h8      1  lig       0.149403
     31 H_0u          6.7023    8.2545   22.6620 h9      1  lig       0.148889
     32 H_0v          3.9674    9.1381   23.4619 hb      1  lig       0.133127
     33 H_0w          5.4909    6.6207   21.3529 hd      1  lig       0.104122
     34 C_0x          6.9158    3.9548   19.3541 cA      1  lig       0.192332
     35 C_0y          7.0250    2.6811   19.8872 cB      1  lig      -0.052664
     36 C_0z          7.9001    1.6220   19.2816 cC      1  lig       0.040161
     37 N_10          7.9386    1.8694   17.8345 nw      1  lig      -0.379409
     38 C_11          8.5061    3.1995   17.5565 cD      1  lig       0.028260
     39 C_12          7.5778    4.3412   18.0470 cE      1  lig      -0.195469
     40 C_13          8.7498    0.8506   17.1984 cF      1  lig      -0.022176
     41 H_14          7.4924    0.6421   19.5037 he      1  lig       0.089991
     42 H_15          8.8987    1.6411   19.7244 hf      1  lig       0.089991
     43 H_16          8.6778    3.3302   16.4860 hg      1  lig       0.056929
     44 H_17          9.4902    3.2989   18.0226 hh      1  lig       0.056929
     45 H_18          8.1484    5.2601   18.1569 hi      1  lig       0.102586
     46 H_19          6.8161    4.5354   17.2926 hj      1  lig       0.102586
     47 H_1a          8.8052    1.0695   16.1341 hk      1  lig       0.052376
     48 H_1b          9.7610    0.8192   17.6086 hl      1  lig       0.052376
     49 H_1c          8.3099   -0.1391   17.3015 hm      1  lig       0.052376
     50 C_1d          1.0676    7.6910   20.2329 cG      1  lig       0.301207
     51 O_1e          0.3104    8.6412   20.4535 o3      1  lig      -0.519836
     52 N_1f          0.6523    6.6056   19.5256 nA      1  lig      -0.078066
     53 C_1g         -0.6704    6.5489   18.8879 cH      1  lig      -0.049685
     54 C_1h          1.4912    5.4400   19.2160 cI      1  lig      -0.240946
     55 H_1i          1.9149    7.6716   22.8889 hq      1  lig       0.076715
     56 H_1j          2.1778    6.0972   22.2014 hr      1  lig       0.076715
     57 H_1k          3.1372    7.1752   20.1018 ht      1  lig       0.053302
     58 H_1l          2.4464    9.8436   21.4236 hu      1  lig       0.066587
     59 H_1m          3.0887    9.6253   19.8165 hv      1  lig       0.066587
     60 H_1n          5.1953    8.7263   20.7088 hy      1  lig       0.016893
     61 H_1o          4.8606   10.2500   21.4809 hz      1  lig       0.016893
     62 H_1p         -1.1846    5.6238   19.1522 hA      1  lig       0.060414
     63 H_1q         -1.3260    7.3725   19.1766 hB      1  lig       0.060414
     64 H_1r         -0.5707    6.5750   17.8018 hC      1  lig       0.060414
     65 H_1s          2.0145    5.5847   18.2697 hD      1  lig       0.086631
     66 H_1t          2.2331    5.2304   19.9873 hE      1  lig       0.086631
     67 H_1u          0.8860    4.5368   19.1237 hF      1  lig       0.086631
     68 H_1v          3.9555    6.7753   23.8306 hG      1  lig       0.099586
     69 H_1w          8.5080   10.2914   23.5467 hH      1  lig       0.088046
     70 H_1x          8.5087    8.7294   22.7582 hI      1  lig       0.088046
@<TRIPOS>BOND
     1     1     3    2
     2     1     7    1
     3     1    11    1
     4     2    10    1
     5     3     4    1
     6     3     8    1
     7     4     5    2
     8     4    27    1
     9     5     6    1
    10     5    12    1
    11     6     7    1
    12     6    69    1
    13     6    70    1
    14     8     9    2
    15     8    28    1
    16     9    10    1
    17     9    29    1
    18    10    11    2
    19    11    30    1
    20    12    13    1
    21    12    15    2
    22    13    14    1
    23    13    31    1
    24    14    16    1
    25    14    20    1
    26    14    32    1
    27    16    17    1
    28    16    21    1
    29    16    68    1
    30    17    18    1
    31    17    55    1
    32    17    56    1
    33    18    19    1
    34    18    50    1
    35    18    57    1
    36    19    20    1
    37    19    58    1
    38    19    59    1
    39    20    60    1
    40    20    61    1
    41    21    22    1
    42    21    33    1
    43    22    23    1
    44    22    24    2
    45    23    25    2
    46    23    26    1
    47    25    34    1
    48    26    35    1
    49    34    35    2
    50    34    39    1
    51    35    36    1
    52    36    37    1
    53    36    41    1
    54    36    42    1
    55    37    38    1
    56    37    40    1
    57    38    39    1
    58    38    43    1
    59    38    44    1
    60    39    45    1
    61    39    46    1
    62    40    47    1
    63    40    48    1
    64    40    49    1
    65    50    51    2
    66    50    52    1
    67    52    53    1
    68    52    54    1
    69    53    62    1
    70    53    63    1
    71    53    64    1
    72    54    65    1
    73    54    66    1
    74    54    67    1
