@<TRIPOS>MOLECULE
lig
  70   74 0 0 0
SMALL
NO_CHARGES


@<TRIPOS>ATOM
      1 C_00         10.5184    8.4577   25.1755 c4      1  lig       0.035802
      2 Cl01         14.0346    7.4729   26.8349 a0      1  lig      -0.121644
      3 C_02          9.5970    7.9992   26.1428 c5      1  lig       0.067196
      4 N_03          8.2213    8.1768   25.9000 n0      1  lig      -0.177310
      5 C_04          7.7501    8.7866   24.7470 c6      1  lig      -0.000265
      6 C_05          8.6203    9.2421   23.8068 c7      1  lig      -0.319313
      7 C_06         10.0630    9.1323   23.9154 c8      1  lig       0.464374
      8 C_07         10.0545    7.3879   27.3131 c9      1  lig      -0.282673
      9 C_08         11.4274    7.2296   27.5281 cb      1  lig      -0.021499
     10 C_09         12.3423    7.6732   26.5747 ci      1  lig      -0.029697
     11 C_0a         11.8906    8.2809   25.4072 cj      1  lig      -0.082578
     12 C_0b          6.3002    8.8329   24.5385 ck      1  lig       0.542200
     13 N_0c          5.9551    8.4855   23.2994 ng      1  lig      -0.330451
     14 C_0d          4.5920    8.5353   22.7929 cm      1  lig       0.018050
     15 O_0e          5.4501    9.1670   25.3673 o0      1  lig      -0.549270
     16 C_0f          4.0043    7.1129   22.7895 cn      1  lig       0.006309
     17 N_0g          4.9085    6.2185   22.0719 nr      1  lig      -0.092355
     18 C_0h          4.9264    4.8949   22.1858 co      1  lig       0.510408
     19 C_0i          5.6646    4.2415   21.1209 cq      1  lig       0.095292
     20 O_0j          4.2645    4.2831   23.0259 o1      1  lig      -0.525929
     21 H_0k          7.5499    7.8585   26.5849 h0      1  lig       0.288190
     22 H_0l          8.2436    9.7034   22.9094 h6      1  lig       0.190393
     23 C_0m          2.5673    7.1162   22.2122 cr      1  lig      -0.128503
     24 C_0n          2.5176    7.7475   20.7918 cs      1  lig       0.058415
     25 C_0o          3.0852    9.1957   20.8192 ct      1  lig      -0.046921
     26 C_0p          4.5136    9.2181   21.4048 cw      1  lig      -0.025587
     27 N_0q          6.1759    4.7911   20.0362 nw      1  lig      -0.422287
     28 S_0r          6.0592    2.5553   21.3175 s0      1  lig      -0.011198
     29 O_0s         10.8420    9.5360   23.0549 o2      1  lig      -0.555222
     30 H_0t          9.3580    7.0382   28.0610 h7      1  lig       0.181220
     31 H_0u         11.7941    6.7639   28.4300 h8      1  lig       0.144136
     32 H_0v         12.6193    8.6194   24.6815 h9      1  lig       0.158430
     33 H_0w          6.7023    8.2545   22.6620 hb      1  lig       0.153291
     34 H_0x          3.9674    9.1381   23.4619 hd      1  lig       0.124066
     35 H_0y          5.4908    6.6206   21.3529 he      1  lig       0.133095
     36 C_0z          6.9158    3.9548   19.3541 cA      1  lig       0.246160
     37 C_10          7.0250    2.6811   19.8872 cB      1  lig      -0.065364
     38 C_11          7.9001    1.6220   19.2816 cC      1  lig       0.018896
     39 N_12          7.9386    1.8694   17.8345 nA      1  lig      -0.388049
     40 C_13          8.5061    3.1995   17.5565 cD      1  lig       0.023791
     41 C_14          7.5778    4.3412   18.0470 cE      1  lig      -0.194822
     42 C_15          8.7498    0.8506   17.1984 cF      1  lig      -0.019070
     43 H_16          7.4924    0.6421   19.5037 hf      1  lig       0.097607
     44 H_17          8.8987    1.6411   19.7244 hg      1  lig       0.097607
     45 H_18          8.6778    3.3302   16.4860 hh      1  lig       0.062159
     46 H_19          9.4902    3.2989   18.0226 hi      1  lig       0.062159
     47 H_1a          8.1484    5.2601   18.1569 hj      1  lig       0.097734
     48 H_1b          6.8161    4.5354   17.2926 hk      1  lig       0.097734
     49 H_1c          8.8052    1.0695   16.1341 hl      1  lig       0.052665
     50 H_1d          9.7610    0.8192   17.6086 hm      1  lig       0.052665
     51 H_1e          8.3099   -0.1391   17.3015 hq      1  lig       0.052665
     52 C_1f          1.0676    7.6910   20.2329 cG      1  lig       0.360272
     53 O_1g          0.3104    8.6412   20.4535 o3      1  lig      -0.537549
     54 N_1h          0.6523    6.6056   19.5256 nB      1  lig      -0.093585
     55 C_1i         -0.6704    6.5489   18.8879 cH      1  lig      -0.038140
     56 C_1j          1.4912    5.4400   19.2160 cI      1  lig      -0.214351
     57 H_1k          1.9149    7.6716   22.8889 hr      1  lig       0.067914
     58 H_1l          2.1778    6.0972   22.2014 ht      1  lig       0.067914
     59 H_1m          3.1372    7.1752   20.1018 hu      1  lig       0.021648
     60 H_1n          2.4464    9.8436   21.4236 hv      1  lig       0.047429
     61 H_1o          3.0887    9.6253   19.8165 hy      1  lig       0.047429
     62 H_1p          5.1953    8.7263   20.7088 hz      1  lig       0.021902
     63 H_1q          4.8606   10.2500   21.4809 hA      1  lig       0.021902
     64 H_1r         -1.1846    5.6238   19.1522 hB      1  lig       0.056203
     65 H_1s         -1.3260    7.3725   19.1766 hC      1  lig       0.056203
     66 H_1t         -0.5707    6.5750   17.8018 hD      1  lig       0.056203
     67 H_1u          2.0145    5.5847   18.2697 hE      1  lig       0.084433
     68 H_1v          2.2331    5.2304   19.9873 hF      1  lig       0.084433
     69 H_1w          0.8860    4.5368   19.1237 hG      1  lig       0.084433
     70 H_1x          3.9555    6.7753   23.8306 hH      1  lig       0.062605
@<TRIPOS>BOND
     1     1     3    1
     2     1     7    1
     3     1    11    2
     4     2    10    1
     5     3     4    1
     6     3     8    2
     7     4     5    1
     8     4    21    1
     9     5     6    2
    10     5    12    1
    11     6     7    1
    12     6    22    1
    13     7    29    2
    14     8     9    1
    15     8    30    1
    16     9    10    2
    17     9    31    1
    18    10    11    1
    19    11    32    1
    20    12    13    1
    21    12    15    2
    22    13    14    1
    23    13    33    1
    24    14    16    1
    25    14    26    1
    26    14    34    1
    27    16    17    1
    28    16    23    1
    29    16    70    1
    30    17    18    1
    31    17    35    1
    32    18    19    1
    33    18    20    2
    34    19    27    2
    35    19    28    1
    36    23    24    1
    37    23    57    1
    38    23    58    1
    39    24    25    1
    40    24    52    1
    41    24    59    1
    42    25    26    1
    43    25    60    1
    44    25    61    1
    45    26    62    1
    46    26    63    1
    47    27    36    1
    48    28    37    1
    49    36    37    2
    50    36    41    1
    51    37    38    1
    52    38    39    1
    53    38    43    1
    54    38    44    1
    55    39    40    1
    56    39    42    1
    57    40    41    1
    58    40    45    1
    59    40    46    1
    60    41    47    1
    61    41    48    1
    62    42    49    1
    63    42    50    1
    64    42    51    1
    65    52    53    2
    66    52    54    1
    67    54    55    1
    68    54    56    1
    69    55    64    1
    70    55    65    1
    71    55    66    1
    72    56    67    1
    73    56    68    1
    74    56    69    1
