@<TRIPOS>MOLECULE
lig
  70   74 0 0 0
SMALL
NO_CHARGES


@<TRIPOS>ATOM
      1 C_00         10.6381    8.4211   25.2912 c4      1  lig      -0.050961
      2 Cl01         14.0487    7.3441   27.0714 a0      1  lig      -0.094399
      3 C_02          9.6544    8.0062   26.1905 c5      1  lig       0.107532
      4 N_03          8.2988    8.2210   25.9028 n0      1  lig      -0.274821
      5 C_04          7.7894    8.8040   24.7519 c6      1  lig       0.311678
      6 N_05          8.4911    9.2695   23.8038 ng      1  lig      -0.428169
      7 C_06         10.0460    7.3739   27.3755 c7      1  lig      -0.232355
      8 C_07         11.4059    7.1720   27.6498 c8      1  lig      -0.030249
      9 C_08         12.3762    7.5928   26.7397 c9      1  lig      -0.020901
     10 C_09         11.9915    8.2153   25.5571 cb      1  lig      -0.072066
     11 C_0a          6.3120    8.8418   24.5378 ci      1  lig       0.533835
     12 N_0b          5.9550    8.4856   23.2993 nr      1  lig      -0.341439
     13 C_0c          4.5919    8.5353   22.7929 cj      1  lig       0.052350
     14 O_0d          5.4503    9.1669   25.3674 o0      1  lig      -0.562769
     15 C_0e          4.0044    7.1129   22.7896 ck      1  lig      -0.000463
     16 C_0f          2.5673    7.1154   22.2133 cm      1  lig      -0.142353
     17 C_0g          2.5176    7.7475   20.7918 cn      1  lig       0.057137
     18 C_0h          3.0858    9.1973   20.8187 co      1  lig      -0.048615
     19 C_0i          4.5137    9.2181   21.4048 cq      1  lig      -0.025886
     20 N_0j          4.9085    6.2189   22.0721 nw      1  lig      -0.006683
     21 C_0k          4.9261    4.8943   22.1857 cr      1  lig       0.386254
     22 C_0l          5.6646    4.2415   21.1209 cs      1  lig       0.167671
     23 O_0m          4.2645    4.2831   23.0259 o1      1  lig      -0.503206
     24 N_0n          6.1759    4.7911   20.0362 nA      1  lig      -0.429774
     25 S_0o          6.0592    2.5553   21.3175 s0      1  lig      -0.018349
     26 H_0p          9.3108    7.0389   28.0926 h0      1  lig       0.182837
     27 H_0q         11.7197    6.6915   28.5648 h6      1  lig       0.149825
     28 H_0r         12.7390    8.5428   24.8453 h7      1  lig       0.184986
     29 H_0s          6.7023    8.2545   22.6619 h8      1  lig       0.148484
     30 H_0t          3.9673    9.1381   23.4619 h9      1  lig       0.116845
     31 H_0u          5.4907    6.6206   21.3528 hb      1  lig       0.128288
     32 C_0v          6.9158    3.9548   19.3541 ct      1  lig       0.234751
     33 C_0w          7.0250    2.6811   19.8872 cw      1  lig      -0.064236
     34 C_0x          7.9001    1.6220   19.2816 cA      1  lig      -0.010558
     35 N_0y          7.9386    1.8694   17.8345 nB      1  lig      -0.375273
     36 C_0z          8.5061    3.1995   17.5565 cB      1  lig       0.009951
     37 C_10          7.5778    4.3412   18.0470 cC      1  lig      -0.175555
     38 C_11          8.7498    0.8506   17.1984 cD      1  lig      -0.046182
     39 H_12          7.4924    0.6421   19.5037 hd      1  lig       0.107603
     40 H_13          8.8987    1.6411   19.7244 he      1  lig       0.107603
     41 H_14          8.6778    3.3302   16.4860 hf      1  lig       0.069007
     42 H_15          9.4902    3.2989   18.0226 hg      1  lig       0.069007
     43 H_16          8.1484    5.2601   18.1569 hh      1  lig       0.092640
     44 H_17          6.8161    4.5354   17.2926 hi      1  lig       0.092640
     45 H_18          8.8052    1.0695   16.1341 hj      1  lig       0.057774
     46 H_19          9.7610    0.8192   17.6086 hk      1  lig       0.057774
     47 H_1a          8.3099   -0.1391   17.3015 hl      1  lig       0.057774
     48 C_1b          1.0676    7.6910   20.2329 cE      1  lig       0.366594
     49 O_1c          0.3104    8.6412   20.4535 o2      1  lig      -0.539367
     50 N_1d          0.6523    6.6056   19.5256 nC      1  lig      -0.094309
     51 C_1e         -0.6704    6.5489   18.8879 cF      1  lig      -0.042693
     52 C_1f          1.4912    5.4400   19.2160 cG      1  lig      -0.206313
     53 H_1g          1.9149    7.6716   22.8889 hm      1  lig       0.070497
     54 H_1h          2.1778    6.0972   22.2014 hq      1  lig       0.070497
     55 H_1i          3.1372    7.1752   20.1018 hr      1  lig       0.014844
     56 H_1j          2.4464    9.8436   21.4236 ht      1  lig       0.044852
     57 H_1k          3.0887    9.6253   19.8165 hu      1  lig       0.044852
     58 H_1l          5.1953    8.7264   20.7088 hv      1  lig       0.023322
     59 H_1m          4.8606   10.2500   21.4809 hy      1  lig       0.023322
     60 H_1n         -1.1846    5.6238   19.1522 hz      1  lig       0.057764
     61 H_1o         -1.3260    7.3725   19.1766 hA      1  lig       0.057764
     62 H_1p         -0.5707    6.5750   17.8018 hB      1  lig       0.057764
     63 H_1q          2.0145    5.5847   18.2697 hC      1  lig       0.081350
     64 H_1r          2.2331    5.2304   19.9873 hD      1  lig       0.081350
     65 H_1s          0.8860    4.5368   19.1237 hE      1  lig       0.081350
     66 H_1t          3.9554    6.7753   23.8306 hF      1  lig       0.059140
     67 H_1u          7.6132    7.9623   26.5954 hG      1  lig       0.301783
     68 S_1v         10.2285    9.2238   23.7755 s1      1  lig       0.972753
     69 O_1w         10.7619   10.5862   23.8294 o3      1  lig      -0.525591
     70 O_1x         10.6694    8.3540   22.6835 o4      1  lig      -0.530509
@<TRIPOS>BOND
     1     1     3    2
     2     1    10    1
     3     1    68    1
     4     2     9    1
     5     3     4    1
     6     3     7    1
     7     4     5    1
     8     4    67    1
     9     5     6    2
    10     5    11    1
    11     6    68    1
    12     7     8    2
    13     7    26    1
    14     8     9    1
    15     8    27    1
    16     9    10    2
    17    10    28    1
    18    11    12    1
    19    11    14    2
    20    12    13    1
    21    12    29    1
    22    13    15    1
    23    13    19    1
    24    13    30    1
    25    15    16    1
    26    15    20    1
    27    15    66    1
    28    16    17    1
    29    16    53    1
    30    16    54    1
    31    17    18    1
    32    17    48    1
    33    17    55    1
    34    18    19    1
    35    18    56    1
    36    18    57    1
    37    19    58    1
    38    19    59    1
    39    20    21    1
    40    20    31    1
    41    21    22    1
    42    21    23    2
    43    22    24    2
    44    22    25    1
    45    24    32    1
    46    25    33    1
    47    32    33    2
    48    32    37    1
    49    33    34    1
    50    34    35    1
    51    34    39    1
    52    34    40    1
    53    35    36    1
    54    35    38    1
    55    36    37    1
    56    36    41    1
    57    36    42    1
    58    37    43    1
    59    37    44    1
    60    38    45    1
    61    38    46    1
    62    38    47    1
    63    48    49    2
    64    48    50    1
    65    50    51    1
    66    50    52    1
    67    51    60    1
    68    51    61    1
    69    51    62    1
    70    52    63    1
    71    52    64    1
    72    52    65    1
    73    68    69    2
    74    68    70    2
