@<TRIPOS>MOLECULE
lig
  47   50 0 0 0
SMALL
NO_CHARGES


@<TRIPOS>ATOM
      1 C_00         -2.2088   12.9419  -10.9697 c4      1  lig       0.149343
      2 C_01         -2.1904   14.4671  -10.9424 c5      1  lig       0.020095
      3 C_02         -3.6992   12.5876  -10.8377 c6      1  lig       0.057543
      4 O_03         -1.6826   12.4744  -12.1795 o0      1  lig      -0.675036
      5 C_04         -3.5107   14.9139  -11.6089 c7      1  lig      -0.089872
      6 N_05         -4.3443   13.7200  -11.5243 n0      1  lig      -0.107230
      7 C_06         -6.3525   12.3601  -12.0338 c8      1  lig       0.018758
      8 C_07         -6.9727   11.7556  -13.1375 c9      1  lig       0.247723
      9 C_08         -7.7097   10.5633  -13.0339 cb      1  lig      -0.338269
     10 C_09         -6.5001   11.8056  -10.7491 ci      1  lig      -0.229001
     11 O_0a         -6.8506   12.3073  -14.3824 o1      1  lig      -0.529653
     12 C_0b         -5.5377   13.6382  -12.2001 cj      1  lig       0.461036
     13 O_0c         -5.9500   14.5444  -12.9177 o2      1  lig      -0.560661
     14 C_0d         -7.2308   10.6159  -10.6131 ck      1  lig       0.001432
     15 C_0e         -7.8083   10.0113  -11.7524 cm      1  lig       0.009200
     16 N_0f         -8.4200    8.8675  -11.2880 ng      1  lig      -0.065873
     17 N_0g         -8.2847    8.7400   -9.9757 nr      1  lig      -0.540371
     18 C_0h         -7.6047    9.7473   -9.5145 cn      1  lig       0.325711
     19 C_0i         -7.3264    9.8951   -8.0245 co      1  lig      -0.059651
     20 C_0j         -5.9604   10.4805   -7.7353 cq      1  lig      -0.012403
     21 C_0k         -4.8075    9.7596   -8.0491 cr      1  lig      -0.153612
     22 C_0l         -3.4358   11.5809   -7.2415 cs      1  lig      -0.102199
     23 C_0m         -4.5835   12.3061   -6.9225 ct      1  lig       0.036548
     24 C_0n         -3.5481   10.3107   -7.8024 cw      1  lig      -0.219384
     25 C_0o         -5.8471   11.7541   -7.1666 cA      1  lig      -0.171713
     26 C_0p         -4.4650   13.6954   -6.3241 cB      1  lig      -0.230848
     27 H_0q         -1.6125   12.4839  -10.1621 h0      1  lig       0.041863
     28 H_0r         -2.1549   14.8184   -9.9245 h6      1  lig       0.003392
     29 H_0s         -1.3157   14.8975  -11.4569 h7      1  lig       0.003392
     30 H_0t         -3.9463   12.5683   -9.7744 h8      1  lig       0.052986
     31 H_0u         -3.8737   11.6025  -11.2997 h9      1  lig       0.052986
     32 H_0v         -0.8317   12.8970  -12.3310 hb      1  lig       0.427569
     33 H_0w         -3.3143   15.2104  -12.6382 hd      1  lig       0.083317
     34 H_0x         -3.9412   15.7445  -11.0416 he      1  lig       0.083317
     35 H_0y         -8.1761   10.1015  -13.8960 hf      1  lig       0.170464
     36 H_0z         -6.0592   12.2786   -9.8757 hg      1  lig       0.136880
     37 H_10         -7.3831   11.8565  -15.0461 hh      1  lig       0.428549
     38 H_11         -8.9260    8.1741  -11.8308 hi      1  lig       0.319215
     39 H_12         -8.0952   10.5284   -7.5802 hj      1  lig       0.069110
     40 H_13         -7.4226    8.9158   -7.5190 hk      1  lig       0.069110
     41 H_14         -4.8834    8.7772   -8.4902 hl      1  lig       0.159482
     42 H_15         -2.4582   12.0019   -7.0535 hm      1  lig       0.123573
     43 H_16         -2.6526    9.7492   -8.0472 hq      1  lig       0.161889
     44 H_17         -6.7368   12.3185   -6.9225 hr      1  lig       0.142084
     45 H_18         -3.5360   14.1747   -6.6301 ht      1  lig       0.076403
     46 H_19         -4.5030   13.6559   -5.2327 hu      1  lig       0.076403
     47 H_1a         -5.2731   14.3301   -6.6809 hv      1  lig       0.076403
@<TRIPOS>BOND
     1     1     2    1
     2     1     3    1
     3     1     4    1
     4     1    27    1
     5     2     5    1
     6     2    28    1
     7     2    29    1
     8     3     6    1
     9     3    30    1
    10     3    31    1
    11     4    32    1
    12     5     6    1
    13     5    33    1
    14     5    34    1
    15     6    12    1
    16     7     8    2
    17     7    10    1
    18     7    12    1
    19     8     9    1
    20     8    11    1
    21     9    15    2
    22     9    35    1
    23    10    14    2
    24    10    36    1
    25    11    37    1
    26    12    13    2
    27    14    15    1
    28    14    18    1
    29    15    16    1
    30    16    17    1
    31    16    38    1
    32    17    18    2
    33    18    19    1
    34    19    20    1
    35    19    39    1
    36    19    40    1
    37    20    21    2
    38    20    25    1
    39    21    24    1
    40    21    41    1
    41    22    23    1
    42    22    24    2
    43    22    42    1
    44    23    25    2
    45    23    26    1
    46    24    43    1
    47    25    44    1
    48    26    45    1
    49    26    46    1
    50    26    47    1
