@<TRIPOS>MOLECULE
lig
  34   35 0 0 0
SMALL
NO_CHARGES


@<TRIPOS>ATOM
      1 C_00         -6.3887   12.3647  -12.0798 c4      1  lig      -0.113617
      2 C_01         -6.4962   11.8202  -10.8023 c5      1  lig      -0.228245
      3 C_02         -7.7456   10.5858  -13.0568 c6      1  lig      -0.257392
      4 C_03         -7.0126   11.7716  -13.1776 c7      1  lig      -0.073585
      5 C_04         -7.8340   10.0285  -11.7877 c8      1  lig       0.056230
      6 C_05         -7.2471   10.6293  -10.6255 c9      1  lig       0.128602
      7 C_06         -7.6099    9.7738   -9.5366 cb      1  lig       0.228885
      8 N_07         -8.2971    8.7499   -9.9997 n0      1  lig      -0.475333
      9 N_08         -8.4324    8.8805  -11.3156 ng      1  lig      -0.124846
     10 C_09         -7.3321    9.9039   -8.0386 ci      1  lig      -0.090490
     11 N_0a         -4.4077   13.6374  -11.5161 nr      1  lig      -0.471533
     12 C_0b         -3.4400   14.7362  -11.5603 cj      1  lig      -0.131987
     13 C_0c         -5.5080   13.5935  -12.2349 ck      1  lig       0.621704
     14 O_0d         -5.8585   14.4899  -13.0509 o0      1  lig      -0.562877
     15 C_0e         -5.9274   10.4444   -7.6346 cm      1  lig       0.253148
     16 C_0f         -4.7880    9.9988   -8.5813 cn      1  lig      -0.195129
     17 C_0g         -5.9224   11.9644   -7.3345 co      1  lig      -0.247354
     18 H_0h         -6.0382   12.2728   -9.9607 h0      1  lig       0.127650
     19 H_0i         -8.2100   10.1267  -13.9275 h6      1  lig       0.168925
     20 H_0j         -6.9074   12.2361  -14.1520 h7      1  lig       0.148433
     21 H_0k         -8.9323    8.1670  -11.8392 h8      1  lig       0.329979
     22 H_0l         -8.0901   10.5612   -7.6086 h9      1  lig       0.033534
     23 H_0m         -7.5048    8.9551   -7.5303 hb      1  lig       0.033534
     24 H_0n         -4.1635   12.8367  -10.9301 hd      1  lig       0.313502
     25 H_0o         -2.4281   14.3561  -11.4328 he      1  lig       0.091478
     26 H_0p         -3.6222   15.4408  -10.7497 hf      1  lig       0.091478
     27 H_0q         -3.4529   15.2842  -12.5019 hg      1  lig       0.091478
     28 H_0r         -5.6875    9.9831   -6.6758 hh      1  lig      -0.027029
     29 H_0s         -3.8140   10.3484   -8.2443 hi      1  lig       0.046793
     30 H_0t         -4.8951   10.4012   -9.5779 hj      1  lig       0.046793
     31 H_0u         -4.7479    8.9096   -8.6828 hk      1  lig       0.046793
     32 H_0v         -4.9281   12.3070   -7.0401 hl      1  lig       0.046826
     33 H_0w         -6.6508   12.2215   -6.5656 hm      1  lig       0.046826
     34 H_0x         -6.2266   12.5877   -8.1480 hq      1  lig       0.046826
@<TRIPOS>BOND
     1     1     2    2
     2     1     4    1
     3     1    13    1
     4     2     6    1
     5     2    18    1
     6     3     4    2
     7     3     5    1
     8     3    19    1
     9     4    20    1
    10     5     6    2
    11     5     9    1
    12     6     7    1
    13     7     8    2
    14     7    10    1
    15     8     9    1
    16     9    21    1
    17    10    15    1
    18    10    22    1
    19    10    23    1
    20    11    12    1
    21    11    13    1
    22    11    24    1
    23    12    25    1
    24    12    26    1
    25    12    27    1
    26    13    14    2
    27    15    16    1
    28    15    17    1
    29    15    28    1
    30    16    29    1
    31    16    30    1
    32    16    31    1
    33    17    32    1
    34    17    33    1
    35    17    34    1
