@<TRIPOS>MOLECULE
lig
  43   45 0 0 0
SMALL
NO_CHARGES


@<TRIPOS>ATOM
      1 C_00         -6.3730   12.3647  -12.0124 c4      1  lig      -0.020167
      2 C_01         -6.5249   11.8167  -10.7375 c5      1  lig      -0.208411
      3 C_02         -7.7225   10.5819  -13.0270 c6      1  lig      -0.272858
      4 C_03         -6.9871   11.7813  -13.1320 c7      1  lig      -0.067760
      5 C_04         -7.8205   10.0150  -11.7538 c8      1  lig       0.056986
      6 C_05         -7.2514   10.6217  -10.6093 c9      1  lig       0.022413
      7 C_06         -7.6113    9.7463   -9.5119 cb      1  lig       0.326144
      8 N_07         -8.2838    8.7282   -9.9768 n0      1  lig      -0.532254
      9 N_08         -8.4166    8.8609  -11.2984 ng      1  lig      -0.093266
     10 C_09         -7.3282    9.8959   -8.0269 ci      1  lig      -0.044703
     11 N_0a         -4.4004   13.6489  -11.4541 nr      1  lig      -0.133384
     12 C_0b         -3.4592   14.7715  -11.4916 cj      1  lig      -0.250055
     13 C_0c         -5.5363   13.6231  -12.1917 ck      1  lig       0.424638
     14 O_0d         -5.8861   14.5056  -12.9557 o0      1  lig      -0.544676
     15 C_0e         -5.9554   10.4909   -7.7390 cm      1  lig      -0.063681
     16 C_0f         -5.8447   11.7612   -7.1661 cn      1  lig      -0.130671
     17 C_0g         -4.5697   12.3054   -6.9214 co      1  lig       0.187245
     18 C_0h         -3.4308   11.5801   -7.2259 cq      1  lig       0.112858
     19 C_0i         -3.5429   10.3015   -7.8076 cr      1  lig      -0.145234
     20 C_0j         -4.8018    9.7661   -8.0596 cs      1  lig      -0.240185
     21 O_0k         -4.4352   13.5609   -6.3638 o1      1  lig      -0.383875
     22 C_0l         -3.6839   14.5445   -7.0766 ct      1  lig       0.028184
     23 O_0m         -2.1928   12.1397   -6.9410 o2      1  lig      -0.195229
     24 C_0n         -1.0568   11.8071   -7.7386 cw      1  lig      -0.120233
     25 H_0o         -6.0865   12.2817   -9.8717 h0      1  lig       0.123863
     26 H_0p         -8.1761   10.1266  -13.8989 h6      1  lig       0.167537
     27 H_0q         -6.8862   12.2301  -14.1010 h7      1  lig       0.149486
     28 H_0r         -8.9109    8.1585  -11.8401 h8      1  lig       0.326604
     29 H_0s         -8.0978   10.5402   -7.5937 h9      1  lig       0.070954
     30 H_0t         -7.4435    8.9306   -7.5162 hb      1  lig       0.070954
     31 H_0u         -4.1544   12.8539  -10.8932 hd      1  lig       0.129432
     32 H_0v         -2.4485   14.4035  -11.3387 he      1  lig       0.103850
     33 H_0w         -3.6772   15.4626  -10.6827 hf      1  lig       0.103850
     34 H_0x         -3.4583   15.3250  -12.4323 hg      1  lig       0.103850
     35 H_0y         -6.7296   12.3147   -6.9189 hh      1  lig       0.148303
     36 H_0z         -2.6623    9.7270   -8.0552 hi      1  lig       0.143140
     37 H_10         -4.8859    8.7827   -8.5028 hj      1  lig       0.175636
     38 H_11         -3.6209   15.4399   -6.4624 hk      1  lig       0.061583
     39 H_12         -4.1459   14.7973   -8.0279 hl      1  lig       0.061583
     40 H_13         -2.6551   14.2645   -7.2771 hm      1  lig       0.061583
     41 H_14         -0.2132   12.3981   -7.3814 hq      1  lig       0.095322
     42 H_15         -1.2092   12.0638   -8.7945 hr      1  lig       0.095322
     43 H_16         -0.7777   10.7513   -7.6419 ht      1  lig       0.095322
@<TRIPOS>BOND
     1     1     2    2
     2     1     4    1
     3     1    13    1
     4     2     6    1
     5     2    25    1
     6     3     4    2
     7     3     5    1
     8     3    26    1
     9     4    27    1
    10     5     6    2
    11     5     9    1
    12     6     7    1
    13     7     8    2
    14     7    10    1
    15     8     9    1
    16     9    28    1
    17    10    15    1
    18    10    29    1
    19    10    30    1
    20    11    12    1
    21    11    13    1
    22    11    31    1
    23    12    32    1
    24    12    33    1
    25    12    34    1
    26    13    14    2
    27    15    16    2
    28    15    20    1
    29    16    17    1
    30    16    35    1
    31    17    18    2
    32    17    21    1
    33    18    19    1
    34    18    23    1
    35    19    20    2
    36    19    36    1
    37    20    37    1
    38    21    22    1
    39    22    38    1
    40    22    39    1
    41    22    40    1
    42    23    24    1
    43    24    41    1
    44    24    42    1
    45    24    43    1
