@<TRIPOS>MOLECULE
lig
  38   40 0 0 0
SMALL
NO_CHARGES


@<TRIPOS>ATOM
      1 C_00         -6.3886   12.3706  -12.0044 c4      1  lig      -0.060268
      2 C_01         -6.5217   11.8105  -10.7338 c5      1  lig      -0.131714
      3 C_02         -7.7267   10.5778  -13.0331 c6      1  lig      -0.252822
      4 C_03         -6.9997   11.7772  -13.1264 c7      1  lig      -0.082021
      5 C_04         -7.8245   10.0105  -11.7588 c8      1  lig       0.046320
      6 C_05         -7.2447   10.6240  -10.5997 c9      1  lig       0.007035
      7 C_06         -7.6157    9.7479   -9.5130 cb      1  lig       0.322762
      8 N_07         -8.2818    8.7335   -9.9900 n0      1  lig      -0.528515
      9 N_08         -8.4155    8.8614  -11.3010 ng      1  lig      -0.090667
     10 C_09         -7.3377    9.8874   -8.0251 ci      1  lig      -0.024119
     11 N_0a         -4.4115   13.6449  -11.4457 nr      1  lig      -0.287978
     12 C_0b         -3.4644   14.7678  -11.5034 cj      1  lig      -0.155685
     13 C_0c         -5.5490   13.6243  -12.1808 ck      1  lig       0.506245
     14 O_0d         -5.8784   14.5204  -12.9613 o0      1  lig      -0.553722
     15 C_0e         -5.9596   10.4818   -7.7362 cm      1  lig      -0.037205
     16 C_0f         -5.8460   11.7538   -7.1602 cn      1  lig      -0.162452
     17 C_0g         -4.5819   12.3007   -6.9160 co      1  lig       0.009335
     18 C_0h         -3.4335   11.5746   -7.2403 cq      1  lig      -0.101333
     19 C_0i         -3.5461   10.3067   -7.8068 cr      1  lig      -0.222326
     20 C_0j         -4.8068    9.7600   -8.0558 cs      1  lig      -0.127853
     21 C_0k         -4.4568   13.6807   -6.3006 ct      1  lig      -0.101212
     22 H_0l         -6.0743   12.2887   -9.8728 h0      1  lig       0.062797
     23 H_0m         -8.1728   10.1132  -13.9065 h6      1  lig       0.164041
     24 H_0n         -6.8713   12.2373  -14.0952 h7      1  lig       0.151060
     25 H_0o         -8.9100    8.1539  -11.8356 h8      1  lig       0.325106
     26 H_0p         -8.0973   10.5468   -7.6004 h9      1  lig       0.059046
     27 H_0q         -7.4473    8.9276   -7.5184 hb      1  lig       0.059046
     28 H_0r         -4.1460   12.8361  -10.8988 hd      1  lig       0.221198
     29 H_0s         -2.4475   14.4022  -11.3420 he      1  lig       0.086159
     30 H_0t         -3.6702   15.4633  -10.6915 hf      1  lig       0.086159
     31 H_0u         -3.4486   15.3231  -12.4449 hg      1  lig       0.086159
     32 H_0v         -6.7333   12.3169   -6.9116 hh      1  lig       0.148767
     33 H_0w         -2.4555   11.9950   -7.0528 hi      1  lig       0.130686
     34 H_0x         -2.6550    9.7463   -8.0534 hj      1  lig       0.161803
     35 H_0y         -4.8912    8.7783   -8.5004 hk      1  lig       0.147184
     36 H_0z         -4.4890   14.4469   -7.0749 hl      1  lig       0.046328
     37 H_10         -3.5248   13.7811   -5.7425 hm      1  lig       0.046328
     38 H_11         -5.2684   13.8625   -5.5988 hq      1  lig       0.046328
@<TRIPOS>BOND
     1     1     2    2
     2     1     4    1
     3     1    13    1
     4     2     6    1
     5     2    22    1
     6     3     4    2
     7     3     5    1
     8     3    23    1
     9     4    24    1
    10     5     6    2
    11     5     9    1
    12     6     7    1
    13     7     8    2
    14     7    10    1
    15     8     9    1
    16     9    25    1
    17    10    15    1
    18    10    26    1
    19    10    27    1
    20    11    12    1
    21    11    13    1
    22    11    28    1
    23    12    29    1
    24    12    30    1
    25    12    31    1
    26    13    14    2
    27    15    16    2
    28    15    20    1
    29    16    17    1
    30    16    32    1
    31    17    18    2
    32    17    21    1
    33    18    19    1
    34    18    33    1
    35    19    20    2
    36    19    34    1
    37    20    35    1
    38    21    36    1
    39    21    37    1
    40    21    38    1
