@<TRIPOS>MOLECULE
lig
  41   44 0 0 0
SMALL
NO_CHARGES


@<TRIPOS>ATOM
      1 C_00         -6.3808   12.3686  -12.0119 c4      1  lig      -0.051670
      2 C_01         -6.5112   11.8116  -10.7365 c5      1  lig      -0.139478
      3 C_02         -7.7301   10.5824  -13.0300 c6      1  lig      -0.247993
      4 C_03         -6.9992   11.7782  -13.1263 c7      1  lig      -0.092162
      5 C_04         -7.8250   10.0166  -11.7542 c8      1  lig       0.045654
      6 C_05         -7.2407   10.6266  -10.6010 c9      1  lig       0.006491
      7 C_06         -7.6094    9.7513   -9.5103 cb      1  lig       0.320968
      8 N_07         -8.2849    8.7404   -9.9846 n0      1  lig      -0.525951
      9 N_08         -8.4192    8.8674  -11.2983 ng      1  lig      -0.090413
     10 C_09         -7.3225    9.8872   -8.0242 ci      1  lig      -0.034151
     11 N_0a         -4.3834   13.6199  -11.4933 nr      1  lig      -0.291323
     12 C_0b         -3.4237   14.7282  -11.5789 cj      1  lig      -0.150431
     13 C_0c         -5.5369   13.6139  -12.1980 ck      1  lig       0.519938
     14 O_0d         -5.8771   14.5161  -12.9653 o0      1  lig      -0.563469
     15 C_0e         -5.9516   10.5005   -7.7272 cm      1  lig      -0.005454
     16 C_0f         -5.8803   11.7722   -7.1539 cn      1  lig      -0.224014
     17 C_0g         -4.6129   12.3159   -6.9118 co      1  lig       0.072112
     18 C_0h         -3.4418   11.5625   -7.2429 cq      1  lig       0.039465
     19 C_0i         -3.5059   10.2842   -7.8062 cr      1  lig      -0.211895
     20 C_0j         -4.7935    9.7780   -8.0417 cs      1  lig      -0.175069
     21 N_0k         -4.0936   13.5458   -6.3664 nw      1  lig       0.108550
     22 N_0l         -2.7885   13.5288   -6.3742 nA      1  lig      -0.429368
     23 C_0m         -2.3831   12.3683   -6.8823 ct      1  lig       0.025991
     24 H_0n         -6.0562   12.2861   -9.8790 h0      1  lig       0.066359
     25 H_0o         -8.1818   10.1228  -13.8979 h6      1  lig       0.163472
     26 H_0p         -6.8754   12.2375  -14.0963 h7      1  lig       0.154641
     27 H_0q         -8.9135    8.1599  -11.8328 h8      1  lig       0.325395
     28 H_0r         -8.0847   10.5486   -7.6052 h9      1  lig       0.061060
     29 H_0s         -7.4513    8.9399   -7.4976 hb      1  lig       0.061060
     30 H_0t         -4.1150   12.8057  -10.9566 hd      1  lig       0.201620
     31 H_0u         -2.8208   14.7394  -10.6724 he      1  lig       0.088244
     32 H_0v         -3.8878   15.7111  -11.6718 hf      1  lig       0.088244
     33 H_0w         -2.7196   14.6037  -12.4046 hg      1  lig       0.088244
     34 H_0x         -6.7772   12.3192   -6.9132 hh      1  lig       0.166159
     35 H_0y         -2.6153    9.7128   -8.0447 hi      1  lig       0.166474
     36 H_0z         -4.8994    8.7979   -8.4799 hj      1  lig       0.155982
     37 H_10         -1.3694   12.0252   -7.0275 hk      1  lig       0.153750
     38 C_11         -5.0479   14.6272   -5.8866 cw      1  lig      -0.040220
     39 H_12         -4.4767   15.4758   -5.5103 hl      1  lig       0.064396
     40 H_13         -5.6764   14.9519   -6.7159 hm      1  lig       0.064396
     41 H_14         -5.6761   14.2304   -5.0891 hq      1  lig       0.064396
@<TRIPOS>BOND
     1     1     2    2
     2     1     4    1
     3     1    13    1
     4     2     6    1
     5     2    24    1
     6     3     4    2
     7     3     5    1
     8     3    25    1
     9     4    26    1
    10     5     6    2
    11     5     9    1
    12     6     7    1
    13     7     8    2
    14     7    10    1
    15     8     9    1
    16     9    27    1
    17    10    15    1
    18    10    28    1
    19    10    29    1
    20    11    12    1
    21    11    13    1
    22    11    30    1
    23    12    31    1
    24    12    32    1
    25    12    33    1
    26    13    14    2
    27    15    16    2
    28    15    20    1
    29    16    17    1
    30    16    34    1
    31    17    18    2
    32    17    21    1
    33    18    19    1
    34    18    23    1
    35    19    20    2
    36    19    35    1
    37    20    36    1
    38    21    22    1
    39    21    38    1
    40    22    23    2
    41    23    37    1
    42    38    39    1
    43    38    40    1
    44    38    41    1
