@<TRIPOS>MOLECULE
lig
  45   48 0 0 0
SMALL
NO_CHARGES


@<TRIPOS>ATOM
      1 C_00         -6.3863   12.3686  -12.0106 c4      1  lig      -0.037847
      2 C_01         -6.5303   11.8179  -10.7351 c5      1  lig      -0.129921
      3 C_02         -7.7274   10.5747  -13.0322 c6      1  lig      -0.254942
      4 C_03         -6.9939   11.7717  -13.1290 c7      1  lig      -0.087641
      5 C_04         -7.8233   10.0108  -11.7572 c8      1  lig       0.042935
      6 C_05         -7.2504   10.6246  -10.6026 c9      1  lig      -0.000237
      7 C_06         -7.6148    9.7488   -9.5126 cb      1  lig       0.320373
      8 N_07         -8.2772    8.7301   -9.9866 n0      1  lig      -0.528375
      9 N_08         -8.4133    8.8585  -11.2996 ng      1  lig      -0.089563
     10 C_09         -7.3367    9.8906   -8.0265 ci      1  lig      -0.036521
     11 N_0a         -4.3739   13.6178  -11.5022 nr      1  lig      -0.246856
     12 C_0b         -3.4056   14.7196  -11.5963 cj      1  lig      -0.067512
     13 C_0c         -5.5407   13.6198  -12.1903 ck      1  lig       0.478560
     14 O_0d         -5.8948   14.5296  -12.9394 o0      1  lig      -0.560920
     15 C_0e         -5.9610   10.4852   -7.7361 cm      1  lig       0.002962
     16 C_0f         -4.8098    9.7648   -8.0558 cn      1  lig      -0.173944
     17 C_0g         -3.5520   10.3132   -7.8064 co      1  lig      -0.120097
     18 C_0h         -3.4430   11.5871   -7.2363 cq      1  lig       0.006733
     19 C_0i         -4.5944   12.3027   -6.9144 cr      1  lig      -0.112405
     20 C_0j         -5.8504   11.7539   -7.1603 cs      1  lig      -0.195658
     21 C_0k         -2.0991   12.1752   -6.9687 ct      1  lig      -0.046988
     22 C_0l         -1.7663   13.4191   -6.4362 cw      1  lig      -0.194888
     23 N_0m         -0.4291   13.4776   -6.3870 nw      1  lig       0.266341
     24 N_0n          0.1723   12.4029   -6.8190 nA      1  lig      -0.479208
     25 C_0o         -0.8029   11.5945   -7.2007 cA      1  lig       0.044765
     26 C_0p          0.3904   14.5868   -5.9117 cB      1  lig      -0.242189
     27 H_0q         -6.0929   12.2989   -9.8733 h0      1  lig       0.085865
     28 H_0r         -8.1755   10.1118  -13.9031 h6      1  lig       0.164276
     29 H_0s         -6.8667   12.2221  -14.1016 h7      1  lig       0.153449
     30 H_0t         -8.9059    8.1512  -11.8355 h8      1  lig       0.324677
     31 H_0u         -8.1020   10.5408   -7.5966 h9      1  lig       0.061021
     32 H_0v         -7.4436    8.9262   -7.5252 hb      1  lig       0.061021
     33 H_0w         -4.1038   12.8034  -10.9679 hd      1  lig       0.130732
     34 H_0x         -2.8050   14.7371  -10.6877 he      1  lig       0.065779
     35 H_0y         -3.8600   15.7058  -11.7050 hf      1  lig       0.065779
     36 H_0z         -2.7006   14.5748  -12.4189 hg      1  lig       0.065779
     37 H_10         -4.8910    8.7823   -8.5005 hh      1  lig       0.156625
     38 H_11         -2.6630    9.7506   -8.0539 hi      1  lig       0.120248
     39 H_12         -4.5131   13.2839   -6.4722 hj      1  lig       0.132337
     40 H_13         -6.7367   12.3149   -6.9092 hk      1  lig       0.152625
     41 H_14         -2.3680   14.2475   -6.0985 hl      1  lig       0.186186
     42 H_15         -0.6030   10.6174   -7.6170 hm      1  lig       0.167786
     43 H_16         -0.2329   15.4126   -5.5710 hq      1  lig       0.116286
     44 H_17          1.0372   14.9418   -6.7159 hr      1  lig       0.116286
     45 H_18          1.0194   14.2522   -5.0866 ht      1  lig       0.116286
@<TRIPOS>BOND
     1     1     2    2
     2     1     4    1
     3     1    13    1
     4     2     6    1
     5     2    27    1
     6     3     4    2
     7     3     5    1
     8     3    28    1
     9     4    29    1
    10     5     6    2
    11     5     9    1
    12     6     7    1
    13     7     8    2
    14     7    10    1
    15     8     9    1
    16     9    30    1
    17    10    15    1
    18    10    31    1
    19    10    32    1
    20    11    12    1
    21    11    13    1
    22    11    33    1
    23    12    34    1
    24    12    35    1
    25    12    36    1
    26    13    14    2
    27    15    16    2
    28    15    20    1
    29    16    17    1
    30    16    37    1
    31    17    18    2
    32    17    38    1
    33    18    19    1
    34    18    21    1
    35    19    20    2
    36    19    39    1
    37    20    40    1
    38    21    22    2
    39    21    25    1
    40    22    23    1
    41    22    41    1
    42    23    24    1
    43    23    26    1
    44    24    25    2
    45    25    42    1
    46    26    43    1
    47    26    44    1
    48    26    45    1
