@<TRIPOS>MOLECULE
lig
  55   58 0 0 0
SMALL
NO_CHARGES


@<TRIPOS>ATOM
      1 C_00         -6.3740   12.3524  -12.0161 c4      1  lig      -0.050856
      2 C_01         -6.5100   11.8065  -10.7374 c5      1  lig      -0.119044
      3 C_02         -7.7222   10.5841  -13.0265 c6      1  lig      -0.251506
      4 C_03         -6.9887   11.7756  -13.1353 c7      1  lig      -0.088996
      5 C_04         -7.8163   10.0177  -11.7563 c8      1  lig       0.040405
      6 C_05         -7.2425   10.6185  -10.6022 c9      1  lig      -0.002348
      7 C_06         -7.6172    9.7487   -9.5090 cb      1  lig       0.326993
      8 N_07         -8.2846    8.7289   -9.9848 n0      1  lig      -0.531997
      9 N_08         -8.4176    8.8659  -11.2967 ng      1  lig      -0.087193
     10 C_09         -7.3368    9.8884   -8.0257 ci      1  lig      -0.039877
     11 N_0a         -4.4023   13.6480  -11.4578 nr      1  lig      -0.213539
     12 C_0b         -3.4623   14.7747  -11.4948 cj      1  lig      -0.139488
     13 C_0c         -5.5331   13.6158  -12.1961 ck      1  lig       0.490361
     14 O_0d         -5.8776   14.5022  -12.9731 o0      1  lig      -0.566602
     15 C_0e         -5.9585   10.4860   -7.7354 cm      1  lig      -0.017715
     16 C_0f         -5.8494   11.7555   -7.1596 cn      1  lig      -0.153739
     17 C_0g         -4.5968   12.3068   -6.9148 co      1  lig      -0.125243
     18 C_0h         -3.4468   11.5860   -7.2370 cq      1  lig      -0.019977
     19 C_0i         -3.5513   10.3089   -7.8057 cr      1  lig      -0.105285
     20 C_0j         -4.8090    9.7654   -8.0523 cs      1  lig      -0.178488
     21 C_0k         -2.0901   12.1669   -6.9801 ct      1  lig      -0.063870
     22 C_0l         -1.7479   13.4121   -6.4872 cw      1  lig      -0.071065
     23 N_0m         -0.3990   13.4663   -6.4328 nw      1  lig       0.168984
     24 N_0n          0.1869   12.3691   -6.8386 nA      1  lig      -0.441331
     25 C_0o         -0.8034   11.5628   -7.1902 cA      1  lig       0.052801
     26 C_0p          0.4389   14.5894   -5.9640 cB      1  lig      -0.026775
     27 C_0q          1.5042   14.2139   -4.8744 cC      1  lig       0.532421
     28 O_0r          2.6302   13.6295   -5.4977 o1      1  lig      -0.699589
     29 C_0s          0.9501   13.1612   -3.9053 cD      1  lig      -0.202426
     30 C_0t          2.0179   15.4484   -4.1037 cE      1  lig      -0.156038
     31 H_0u         -6.0870   12.2815   -9.8767 h0      1  lig       0.077996
     32 H_0v         -8.1782   10.1403  -13.8916 h6      1  lig       0.163160
     33 H_0w         -6.8882   12.2326  -14.1065 h7      1  lig       0.154438
     34 H_0x         -8.9139    8.1642  -11.8383 h8      1  lig       0.324728
     35 H_0y         -7.4382    8.9312   -7.5247 h9      1  lig       0.063629
     36 H_0z         -8.1000   10.5369   -7.5915 hb      1  lig       0.063629
     37 H_10         -4.1602   12.8736  -10.8739 hd      1  lig       0.119959
     38 H_11         -2.4435   14.3983  -11.3392 he      1  lig       0.079008
     39 H_12         -3.6800   15.4678  -10.6811 hf      1  lig       0.079008
     40 H_13         -3.4649   15.3194  -12.4306 hg      1  lig       0.079008
     41 H_14         -6.7363   12.3155   -6.9060 hh      1  lig       0.143611
     42 H_15         -4.5225   13.2880   -6.4780 hi      1  lig       0.123668
     43 H_16         -2.6716    9.7462   -8.0565 hj      1  lig       0.128232
     44 H_17         -4.8874    8.7809   -8.4938 hk      1  lig       0.153711
     45 H_18         -2.3463   14.2645   -6.1724 hl      1  lig       0.150326
     46 H_19         -0.6294   10.5673   -7.5714 hm      1  lig       0.151897
     47 H_1a         -0.2274   15.3656   -5.5864 hq      1  lig       0.047085
     48 H_1b          0.9266   15.0143   -6.8422 hr      1  lig       0.047085
     49 H_1c          3.2101   13.2860   -4.8126 ht      1  lig       0.420774
     50 H_1d          0.6553   12.2750   -4.4689 hu      1  lig       0.027528
     51 H_1e          0.0795   13.5454   -3.3665 hv      1  lig       0.027528
     52 H_1f          1.6833   12.8594   -3.1584 hy      1  lig       0.027528
     53 H_1g          2.5210   16.1617   -4.7561 hz      1  lig       0.029162
     54 H_1h          2.7337   15.1648   -3.3313 hA      1  lig       0.029162
     55 H_1i          1.2023   15.9748   -3.6071 hB      1  lig       0.029162
@<TRIPOS>BOND
     1     1     2    2
     2     1     4    1
     3     1    13    1
     4     2     6    1
     5     2    31    1
     6     3     4    2
     7     3     5    1
     8     3    32    1
     9     4    33    1
    10     5     6    2
    11     5     9    1
    12     6     7    1
    13     7     8    2
    14     7    10    1
    15     8     9    1
    16     9    34    1
    17    10    15    1
    18    10    35    1
    19    10    36    1
    20    11    12    1
    21    11    13    1
    22    11    37    1
    23    12    38    1
    24    12    39    1
    25    12    40    1
    26    13    14    2
    27    15    16    2
    28    15    20    1
    29    16    17    1
    30    16    41    1
    31    17    18    2
    32    17    42    1
    33    18    19    1
    34    18    21    1
    35    19    20    2
    36    19    43    1
    37    20    44    1
    38    21    22    2
    39    21    25    1
    40    22    23    1
    41    22    45    1
    42    23    24    1
    43    23    26    1
    44    24    25    2
    45    25    46    1
    46    26    27    1
    47    26    47    1
    48    26    48    1
    49    27    28    1
    50    27    29    1
    51    27    30    1
    52    28    49    1
    53    29    50    1
    54    29    51    1
    55    29    52    1
    56    30    53    1
    57    30    54    1
    58    30    55    1
