@<TRIPOS>MOLECULE
lig
  48   52 0 0 0
SMALL
NO_CHARGES


@<TRIPOS>ATOM
      1 C_00         -6.3865   12.3338  -12.0432 c4      1  lig      -0.001811
      2 C_01         -6.4856   11.7841  -10.7704 c5      1  lig      -0.204347
      3 C_02         -7.7472   10.5643  -13.0426 c6      1  lig      -0.296290
      4 C_03         -7.0167   11.7500  -13.1460 c7      1  lig      -0.004929
      5 C_04         -7.8303   10.0081  -11.7598 c8      1  lig       0.037029
      6 C_05         -7.2256   10.6149  -10.6156 c9      1  lig       0.008132
      7 C_06         -7.6010    9.7518   -9.5145 cb      1  lig       0.321837
      8 N_07         -8.2842    8.7423   -9.9828 n0      1  lig      -0.539187
      9 N_08         -8.4323    8.8733  -11.2925 ng      1  lig      -0.093542
     10 C_09         -7.3270    9.8938   -8.0225 ci      1  lig      -0.033405
     11 C_0a         -5.5587   13.5285  -12.2266 cj      1  lig       0.210428
     12 C_0b         -5.9618   10.4909   -7.7327 ck      1  lig      -0.007865
     13 C_0c         -5.8582   11.7635   -7.1652 cm      1  lig      -0.203902
     14 C_0d         -4.6045   12.3140   -6.9191 cn      1  lig      -0.088220
     15 C_0e         -3.4477   11.5945   -7.2362 co      1  lig      -0.004145
     16 C_0f         -3.5614   10.3184   -7.7958 cq      1  lig      -0.168242
     17 C_0g         -4.8112    9.7685   -8.0438 cr      1  lig      -0.140651
     18 C_0h         -2.1002   12.1716   -6.9783 cs      1  lig      -0.020154
     19 C_0i         -1.7494   13.4275   -6.4902 ct      1  lig      -0.208250
     20 N_0j         -0.4141   13.4605   -6.4332 nr      1  lig       0.252758
     21 N_0k          0.1744   12.3664   -6.8143 nw      1  lig      -0.486686
     22 C_0l         -0.8092   11.5630   -7.1796 cw      1  lig       0.070612
     23 C_0m          0.4176   14.5730   -6.0003 cA      1  lig      -0.161493
     24 C_0n         -4.4279   13.9049  -11.5130 cB      1  lig      -0.242411
     25 N_0o         -4.0090   15.0294  -12.0677 nA      1  lig       0.022207
     26 C_0p         -4.8449   15.3445  -13.0534 cC      1  lig       0.074791
     27 N_0q         -5.7816   14.4464  -13.2081 nB      1  lig      -0.506992
     28 C_0r         -2.9003   15.7800  -11.6435 cD      1  lig      -0.077875
     29 H_0s         -6.0033   12.2571   -9.9302 h0      1  lig       0.115309
     30 H_0t         -8.2085   10.1086  -13.9036 h6      1  lig       0.168376
     31 H_0u         -6.9107   12.2133  -14.1195 h7      1  lig       0.104388
     32 H_0v         -8.9502    8.1807  -11.8157 h8      1  lig       0.322437
     33 H_0w         -7.4150    8.9297   -7.5146 h9      1  lig       0.058426
     34 H_0x         -8.0903   10.5352   -7.5767 hb      1  lig       0.058426
     35 H_0y         -6.7489   12.3218   -6.9239 hd      1  lig       0.151206
     36 H_0z         -4.5244   13.2981   -6.4811 he      1  lig       0.116793
     37 H_10         -2.6700    9.7533   -8.0396 hf      1  lig       0.133677
     38 H_11         -4.8938    8.7844   -8.4823 hg      1  lig       0.150961
     39 H_12         -2.3367   14.2768   -6.1925 hh      1  lig       0.185664
     40 H_13         -0.6184   10.5668   -7.5609 hi      1  lig       0.150410
     41 H_14          1.0791   14.8637   -6.8199 hj      1  lig       0.093024
     42 H_15          1.0264   14.2592   -5.1502 hk      1  lig       0.093024
     43 H_16         -0.1971   15.4244   -5.7161 hl      1  lig       0.093024
     44 H_17         -3.8953   13.4661  -10.6706 hm      1  lig       0.146630
     45 H_18         -4.6948   16.2656  -13.6196 hq      1  lig       0.152846
     46 H_19         -3.2685   16.3921  -10.8459 hr      1  lig       0.065994
     47 H_1a         -2.6068   16.4484  -12.4038 ht      1  lig       0.065994
     48 H_1b         -2.0360   15.1571  -11.3689 hu      1  lig       0.065994
@<TRIPOS>BOND
     1     1     2    2
     2     1     4    1
     3     1    11    1
     4     2     6    1
     5     2    29    1
     6     3     4    2
     7     3     5    1
     8     3    30    1
     9     4    31    1
    10     5     6    2
    11     5     9    1
    12     6     7    1
    13     7     8    2
    14     7    10    1
    15     8     9    1
    16     9    32    1
    17    10    12    1
    18    10    33    1
    19    10    34    1
    20    11    24    2
    21    11    27    1
    22    12    13    2
    23    12    17    1
    24    13    14    1
    25    13    35    1
    26    14    15    2
    27    14    36    1
    28    15    16    1
    29    15    18    1
    30    16    17    2
    31    16    37    1
    32    17    38    1
    33    18    19    2
    34    18    22    1
    35    19    20    1
    36    19    39    1
    37    20    21    1
    38    20    23    1
    39    21    22    2
    40    22    40    1
    41    23    41    1
    42    23    42    1
    43    23    43    1
    44    24    25    1
    45    24    44    1
    46    25    26    1
    47    25    28    1
    48    26    27    2
    49    26    45    1
    50    28    46    1
    51    28    47    1
    52    28    48    1
