@<TRIPOS>MOLECULE
lig
  48   52 0 0 0
SMALL
NO_CHARGES


@<TRIPOS>ATOM
      1 C_00         -6.3943   12.3306  -11.9839 c4      1  lig      -0.027986
      2 C_01         -6.5449   11.7624  -10.7224 c5      1  lig      -0.164314
      3 C_02         -7.7389   10.5318  -13.0493 c6      1  lig      -0.237907
      4 C_03         -6.9892   11.7416  -13.1218 c7      1  lig      -0.094050
      5 C_04         -7.8445    9.9757  -11.7834 c8      1  lig       0.041336
      6 C_05         -7.2758   10.5697  -10.6136 c9      1  lig       0.003947
      7 C_06         -7.6401    9.7111   -9.5254 cb      1  lig       0.297533
      8 N_07         -8.3075    8.6850  -10.0132 n0      1  lig      -0.516783
      9 N_08         -8.4539    8.8245  -11.3160 ng      1  lig      -0.099685
     10 C_09         -7.3472    9.8680   -8.0446 ci      1  lig      -0.042114
     11 C_0a         -5.5569   13.6094  -12.1739 cj      1  lig       0.325456
     12 C_0b         -5.9691   10.4796   -7.7443 ck      1  lig       0.022921
     13 C_0c         -5.8622   11.7497   -7.1624 cm      1  lig      -0.210634
     14 C_0d         -4.6000   12.2988   -6.9070 cn      1  lig      -0.096392
     15 C_0e         -3.4496   11.5829   -7.2293 co      1  lig      -0.007310
     16 C_0f         -3.5554   10.3089   -7.8035 cq      1  lig      -0.136135
     17 C_0g         -4.8209    9.7667   -8.0554 cr      1  lig      -0.161405
     18 C_0h         -2.0956   12.1660   -6.9654 cs      1  lig      -0.050071
     19 C_0i         -1.7384   13.4130   -6.4683 ct      1  lig      -0.241186
     20 N_0j         -0.4069   13.4502   -6.4129 nr      1  lig       0.311885
     21 N_0k          0.1813   12.3566   -6.8171 nw      1  lig      -0.489874
     22 C_0l         -0.7988   11.5478   -7.1867 cw      1  lig       0.052996
     23 C_0m          0.4282   14.5550   -5.9664 cA      1  lig      -0.197238
     24 N_0n         -4.7714   14.2106  -11.2027 nA      1  lig       0.081293
     25 C_0o         -4.2061   15.2849  -11.7862 cB      1  lig      -0.419012
     26 C_0p         -4.6883   15.3268  -13.0997 cC      1  lig       0.081454
     27 N_0q         -5.5027   14.2765  -13.3098 nB      1  lig      -0.550954
     28 C_0r         -4.5364   13.8232   -9.7989 cD      1  lig      -0.060783
     29 H_0s         -6.1220   12.1694   -9.8642 h0      1  lig       0.118911
     30 H_0t         -8.1658   10.0922  -13.9365 h6      1  lig       0.162171
     31 H_0u         -6.8689   12.2077  -14.0813 h7      1  lig       0.145966
     32 H_0v         -8.9525    8.1221  -11.8662 h8      1  lig       0.324593
     33 H_0w         -7.4314    8.9174   -7.5157 h9      1  lig       0.059680
     34 H_0x         -8.0944   10.5330   -7.6015 hb      1  lig       0.059680
     35 H_0y         -6.7507   12.3127   -6.9154 hd      1  lig       0.146380
     36 H_0z         -4.5195   13.2804   -6.4580 he      1  lig       0.123470
     37 H_10         -2.6726    9.7529   -8.0470 hf      1  lig       0.125272
     38 H_11         -4.8924    8.7835   -8.5028 hg      1  lig       0.151668
     39 H_12         -2.3320   14.2647   -6.1602 hh      1  lig       0.192109
     40 H_13         -0.6146   10.5716   -7.5810 hi      1  lig       0.155600
     41 H_14          1.0432   14.2275   -5.1327 hj      1  lig       0.098898
     42 H_15         -0.1881   15.4011   -5.6571 hk      1  lig       0.098898
     43 H_16          1.0785   14.8647   -6.7815 hl      1  lig       0.098898
     44 H_17         -3.5385   15.9338  -11.2484 hm      1  lig       0.216888
     45 H_18         -4.4386   16.0565  -13.8570 hq      1  lig       0.133352
     46 H_19         -4.0519   14.6585   -9.2909 hr      1  lig       0.057526
     47 H_1a         -3.8437   12.9692   -9.7547 ht      1  lig       0.057526
     48 H_1b         -5.4214   13.7994   -9.1880 hu      1  lig       0.057526
@<TRIPOS>BOND
     1     1     2    2
     2     1     4    1
     3     1    11    1
     4     2     6    1
     5     2    29    1
     6     3     4    2
     7     3     5    1
     8     3    30    1
     9     4    31    1
    10     5     6    2
    11     5     9    1
    12     6     7    1
    13     7     8    2
    14     7    10    1
    15     8     9    1
    16     9    32    1
    17    10    12    1
    18    10    33    1
    19    10    34    1
    20    11    24    1
    21    11    27    2
    22    12    13    2
    23    12    17    1
    24    13    14    1
    25    13    35    1
    26    14    15    2
    27    14    36    1
    28    15    16    1
    29    15    18    1
    30    16    17    2
    31    16    37    1
    32    17    38    1
    33    18    19    2
    34    18    22    1
    35    19    20    1
    36    19    39    1
    37    20    21    1
    38    20    23    1
    39    21    22    2
    40    22    40    1
    41    23    41    1
    42    23    42    1
    43    23    43    1
    44    24    25    1
    45    24    28    1
    46    25    26    2
    47    25    44    1
    48    26    27    1
    49    26    45    1
    50    28    46    1
    51    28    47    1
    52    28    48    1
