@<TRIPOS>MOLECULE
lig
  49   53 0 0 0
SMALL
NO_CHARGES


@<TRIPOS>ATOM
      1 C_00         -6.3775   12.3296  -12.0018 c4      1  lig      -0.051806
      2 C_01         -6.5098   11.7629  -10.7403 c5      1  lig      -0.158948
      3 C_02         -7.7247   10.5660  -13.0266 c6      1  lig      -0.264922
      4 C_03         -6.9942   11.7487  -13.1193 c7      1  lig      -0.038776
      5 C_04         -7.8312   10.0057  -11.7538 c8      1  lig       0.033024
      6 C_05         -7.2443   10.6021  -10.6070 c9      1  lig       0.011442
      7 C_06         -7.6167    9.7449   -9.5151 cb      1  lig       0.322570
      8 N_07         -8.2961    8.7374   -9.9786 n0      1  lig      -0.534426
      9 N_08         -8.4404    8.8724  -11.2937 ng      1  lig      -0.091982
     10 C_09         -7.3318    9.8946   -8.0252 ci      1  lig      -0.053860
     11 C_0a         -5.5478   13.5112  -12.1572 cj      1  lig       0.340959
     12 C_0b         -5.9707   10.4870   -7.7351 ck      1  lig      -0.007374
     13 C_0c         -5.8642   11.7588   -7.1694 cm      1  lig      -0.168385
     14 C_0d         -4.6019   12.3141   -6.9186 cn      1  lig      -0.124503
     15 C_0e         -3.4503   11.5963   -7.2357 co      1  lig      -0.018587
     16 C_0f         -3.5604   10.3220   -7.8000 cq      1  lig      -0.103084
     17 C_0g         -4.8213    9.7719   -8.0443 cr      1  lig      -0.189819
     18 C_0h         -2.0996   12.1710   -6.9757 cs      1  lig      -0.041135
     19 C_0i         -1.7487   13.4240   -6.4767 ct      1  lig      -0.139497
     20 N_0j         -0.4123   13.4674   -6.4260 nr      1  lig       0.152199
     21 N_0k          0.1713   12.3664   -6.8217 nw      1  lig      -0.476179
     22 C_0l         -0.8093   11.5624   -7.1930 cw      1  lig       0.057259
     23 C_0m          0.4224   14.5657   -5.9816 cA      1  lig      -0.035435
     24 N_0n         -5.6966   14.2423  -13.2612 nA      1  lig      -0.463975
     25 C_0o         -4.9506   15.3153  -13.5405 cB      1  lig       0.066500
     26 C_0p         -3.9383   15.6899  -12.6782 cC      1  lig      -0.306075
     27 C_0q         -3.7261   14.9536  -11.5366 cD      1  lig       0.428063
     28 C_0r         -4.5508   13.8769  -11.2437 cE      1  lig      -0.310965
     29 N_0s         -2.6976   15.2614  -10.7139 nB      1  lig      -0.955595
     30 H_0t         -6.0413   12.2163   -9.8757 h0      1  lig       0.089223
     31 H_0u         -8.1733   10.1082  -13.8992 h6      1  lig       0.163668
     32 H_0v         -6.8809   12.2018  -14.0912 h7      1  lig       0.106420
     33 H_0w         -8.9536    8.1815  -11.8284 h8      1  lig       0.323556
     34 H_0x         -7.4130    8.9234   -7.5092 h9      1  lig       0.068546
     35 H_0y         -8.0893   10.5342   -7.5733 hb      1  lig       0.068546
     36 H_0z         -6.7528   12.3249   -6.9255 hd      1  lig       0.153200
     37 H_10         -4.5328   13.2988   -6.4768 he      1  lig       0.131320
     38 H_11         -2.6748    9.7543   -8.0412 hf      1  lig       0.119463
     39 H_12         -4.8926    8.7851   -8.4839 hg      1  lig       0.151269
     40 H_13         -2.3413   14.2681   -6.1710 hh      1  lig       0.178827
     41 H_14         -0.6174   10.5819   -7.5829 hi      1  lig       0.146088
     42 H_15          1.0693   14.8635   -6.8057 hj      1  lig       0.064033
     43 H_16          1.0251   14.2426   -5.1445 hk      1  lig       0.064033
     44 H_17         -0.2033   15.4153   -5.6884 hl      1  lig       0.064033
     45 H_18         -5.1686   15.8110  -14.4274 hm      1  lig       0.121164
     46 H_19         -3.3134   16.5389  -12.9221 hq      1  lig       0.147912
     47 H_1a         -4.3780   13.3123  -10.3528 hr      1  lig       0.152211
     48 H_1b         -2.6917   14.8692   -9.7891 ht      1  lig       0.404900
     49 H_1c         -2.2693   16.1577  -10.8793 hu      1  lig       0.404900
@<TRIPOS>BOND
     1     1     2    2
     2     1     4    1
     3     1    11    1
     4     2     6    1
     5     2    30    1
     6     3     4    2
     7     3     5    1
     8     3    31    1
     9     4    32    1
    10     5     6    2
    11     5     9    1
    12     6     7    1
    13     7     8    2
    14     7    10    1
    15     8     9    1
    16     9    33    1
    17    10    12    1
    18    10    34    1
    19    10    35    1
    20    11    24    2
    21    11    28    1
    22    12    13    2
    23    12    17    1
    24    13    14    1
    25    13    36    1
    26    14    15    2
    27    14    37    1
    28    15    16    1
    29    15    18    1
    30    16    17    2
    31    16    38    1
    32    17    39    1
    33    18    19    2
    34    18    22    1
    35    19    20    1
    36    19    40    1
    37    20    21    1
    38    20    23    1
    39    21    22    2
    40    22    41    1
    41    23    42    1
    42    23    43    1
    43    23    44    1
    44    24    25    1
    45    25    26    2
    46    25    45    1
    47    26    27    1
    48    26    46    1
    49    27    28    2
    50    27    29    1
    51    28    47    1
    52    29    48    1
    53    29    49    1
