@<TRIPOS>MOLECULE
lig
  45   48 0 0 0
SMALL
NO_CHARGES


@<TRIPOS>ATOM
      1 C_00         -6.3515   12.3530  -11.9813 c4      1  lig       0.094673
      2 C_01         -6.5085   11.7912  -10.7247 c5      1  lig      -0.265667
      3 C_02         -7.6802   10.5716  -13.0438 c6      1  lig      -0.296431
      4 C_03         -6.9296   11.7657  -13.1245 c7      1  lig      -0.054004
      5 C_04         -7.7980   10.0044  -11.7669 c8      1  lig       0.082036
      6 C_05         -7.2328   10.6109  -10.5989 c9      1  lig      -0.000012
      7 C_06         -7.6209    9.7375   -9.5162 cb      1  lig       0.291009
      8 N_07         -8.2754    8.7446   -9.9970 n0      1  lig      -0.511118
      9 N_08         -8.4233    8.8800  -11.3218 ng      1  lig      -0.121809
     10 C_09         -7.3328    9.8812   -8.0296 ci      1  lig      -0.023653
     11 C_0a         -5.3004   14.2773  -13.1499 cj      1  lig       0.696194
     12 C_0b         -4.4346   15.5261  -12.8998 ck      1  lig      -0.457447
     13 N_0c         -5.5896   13.5586  -12.0343 nr      1  lig      -0.445701
     14 C_0d         -5.9706   10.4906   -7.7317 cm      1  lig       0.040994
     15 C_0e         -5.8616   11.7632   -7.1684 cn      1  lig      -0.233061
     16 C_0f         -4.6051   12.3126   -6.9180 co      1  lig      -0.089587
     17 C_0g         -3.4544   11.5948   -7.2294 cq      1  lig       0.030169
     18 C_0h         -3.5626   10.3128   -7.8011 cr      1  lig      -0.154950
     19 C_0i         -4.8160    9.7710   -8.0425 cs      1  lig      -0.181699
     20 C_0j         -2.1083   12.1736   -6.9694 ct      1  lig      -0.074644
     21 C_0k         -1.7503   13.4247   -6.4858 cw      1  lig      -0.212468
     22 N_0l         -0.4131   13.4674   -6.4189 nw      1  lig       0.263362
     23 N_0m          0.1758   12.3735   -6.8057 nA      1  lig      -0.480835
     24 C_0n         -0.8094   11.5620   -7.1791 cA      1  lig       0.059191
     25 C_0o          0.4060   14.5705   -5.9896 cB      1  lig      -0.196244
     26 O_0p         -5.6528   14.0066  -14.2746 o0      1  lig      -0.583418
     27 H_0q         -6.0624   12.2581   -9.8612 h0      1  lig       0.162371
     28 H_0r         -8.1172   10.1173  -13.9162 h6      1  lig       0.172814
     29 H_0s         -6.8256   12.2012  -14.0958 h7      1  lig       0.164614
     30 H_0t         -8.9432    8.1901  -11.8473 h8      1  lig       0.329405
     31 H_0u         -8.0986   10.5389   -7.5828 h9      1  lig       0.052791
     32 H_0v         -7.4252    8.9299   -7.5158 hb      1  lig       0.052791
     33 H_0w         -4.1820   15.6085  -11.8419 hd      1  lig       0.131753
     34 H_0x         -4.9911   16.4102  -13.1903 he      1  lig       0.131753
     35 H_0y         -3.4935   15.4841  -13.4268 hf      1  lig       0.131753
     36 H_0z         -5.2195   13.8866  -11.1438 hg      1  lig       0.298311
     37 H_10         -6.7535   12.3213   -6.9230 hh      1  lig       0.147062
     38 H_11         -4.5307   13.2966   -6.4786 hi      1  lig       0.110152
     39 H_12         -2.6732    9.7534   -8.0369 hj      1  lig       0.131830
     40 H_13         -4.8952    8.7834   -8.4850 hk      1  lig       0.159453
     41 H_14         -2.3455   14.2746   -6.1808 hl      1  lig       0.192433
     42 H_15         -0.6187   10.5735   -7.5589 hm      1  lig       0.149888
     43 H_16         -0.2064   15.4259   -5.7003 hq      1  lig       0.101982
     44 H_17          1.0748   14.8695   -6.8055 hr      1  lig       0.101982
     45 H_18          1.0202   14.2589   -5.1325 ht      1  lig       0.101982
@<TRIPOS>BOND
     1     1     2    2
     2     1     4    1
     3     1    13    1
     4     2     6    1
     5     2    27    1
     6     3     4    2
     7     3     5    1
     8     3    28    1
     9     4    29    1
    10     5     6    2
    11     5     9    1
    12     6     7    1
    13     7     8    2
    14     7    10    1
    15     8     9    1
    16     9    30    1
    17    10    14    1
    18    10    31    1
    19    10    32    1
    20    11    12    1
    21    11    13    1
    22    11    26    2
    23    12    33    1
    24    12    34    1
    25    12    35    1
    26    13    36    1
    27    14    15    2
    28    14    19    1
    29    15    16    1
    30    15    37    1
    31    16    17    2
    32    16    38    1
    33    17    18    1
    34    17    20    1
    35    18    19    2
    36    18    39    1
    37    19    40    1
    38    20    21    2
    39    20    24    1
    40    21    22    1
    41    21    41    1
    42    22    23    1
    43    22    25    1
    44    23    24    2
    45    24    42    1
    46    25    43    1
    47    25    44    1
    48    25    45    1
