@<TRIPOS>MOLECULE
lig
  46   49 0 0 0
SMALL
NO_CHARGES


@<TRIPOS>ATOM
      1 C_00         -6.3861   12.3623  -11.9697 c4      1  lig       0.107212
      2 C_01         -6.5480   11.8020  -10.7080 c5      1  lig      -0.120139
      3 C_02         -7.6869   10.5726  -13.0325 c6      1  lig      -0.275662
      4 C_03         -6.9529   11.7665  -13.1047 c7      1  lig      -0.109442
      5 C_04         -7.8210   10.0086  -11.7556 c8      1  lig       0.062065
      6 C_05         -7.2636   10.6177  -10.5919 c9      1  lig      -0.028202
      7 C_06         -7.6330    9.7421   -9.5104 cb      1  lig       0.302562
      8 N_07         -8.3023    8.7332   -9.9897 n0      1  lig      -0.506775
      9 N_08         -8.4342    8.8678  -11.3051 ng      1  lig      -0.106388
     10 C_09         -7.3415    9.8758   -8.0215 ci      1  lig      -0.050056
     11 S_0a         -4.1211   13.8754  -11.2000 s0      1  lig       0.875698
     12 C_0b         -2.9188   12.5402  -11.7675 cj      1  lig      -0.208204
     13 N_0c         -5.6382   13.5428  -12.1051 nr      1  lig      -0.579991
     14 C_0d         -5.9683   10.4827   -7.7344 ck      1  lig       0.010360
     15 C_0e         -4.8123    9.7690   -8.0490 cm      1  lig      -0.206471
     16 C_0f         -3.5592   10.3237   -7.7969 cn      1  lig      -0.103877
     17 C_0g         -3.4543   11.5962   -7.2288 co      1  lig       0.007139
     18 C_0h         -4.6126   12.3085   -6.9084 cq      1  lig      -0.092411
     19 C_0i         -5.8671   11.7538   -7.1613 cr      1  lig      -0.199280
     20 C_0j         -2.1058   12.1871   -6.9644 cs      1  lig      -0.108257
     21 C_0k         -1.7745   13.4406   -6.4637 ct      1  lig      -0.143049
     22 N_0l         -0.4394   13.4976   -6.4041 nw      1  lig       0.282615
     23 N_0m          0.1691   12.4146   -6.8015 nA      1  lig      -0.497534
     24 C_0n         -0.8034   11.5995   -7.1773 cw      1  lig       0.059967
     25 C_0o          0.3694   14.6144   -5.9538 cA      1  lig      -0.179975
     26 O_0p         -3.6497   15.1720  -11.6865 o0      1  lig      -0.533660
     27 O_0q         -4.3650   13.6745   -9.7698 o1      1  lig      -0.467101
     28 H_0r         -6.1192   12.2649   -9.8433 h0      1  lig       0.158107
     29 H_0s         -8.1122   10.1144  -13.9155 h6      1  lig       0.179940
     30 H_0t         -6.8144   12.2368  -14.0685 h7      1  lig       0.142329
     31 H_0u         -8.9325    8.1663  -11.8458 h8      1  lig       0.326238
     32 H_0v         -7.4236    8.9164   -7.5059 h9      1  lig       0.063400
     33 H_0w         -8.0908   10.5346   -7.5820 hb      1  lig       0.063400
     34 H_0x         -1.9692   12.6827  -11.2486 hd      1  lig       0.109737
     35 H_0y         -2.7669   12.6240  -12.8324 he      1  lig       0.109737
     36 H_0z         -3.3306   11.5652  -11.5235 hf      1  lig       0.109737
     37 H_10         -5.9058   14.2159  -12.8076 hg      1  lig       0.390366
     38 H_11         -4.8881    8.7864   -8.4918 hh      1  lig       0.159460
     39 H_12         -2.6674    9.7660   -8.0419 hi      1  lig       0.108278
     40 H_13         -4.5385   13.2901   -6.4661 hj      1  lig       0.128844
     41 H_14         -6.7582   12.3115   -6.9184 hk      1  lig       0.148254
     42 H_15         -2.3766   14.2799   -6.1559 hl      1  lig       0.176452
     43 H_16         -0.5994   10.6146   -7.5758 hm      1  lig       0.149862
     44 H_17          0.9849   14.2943   -5.1133 hq      1  lig       0.094905
     45 H_18         -0.2624   15.4490   -5.6481 hr      1  lig       0.094905
     46 H_19          1.0212   14.9347   -6.7673 ht      1  lig       0.094905
@<TRIPOS>BOND
     1     1     2    2
     2     1     4    1
     3     1    13    1
     4     2     6    1
     5     2    28    1
     6     3     4    2
     7     3     5    1
     8     3    29    1
     9     4    30    1
    10     5     6    2
    11     5     9    1
    12     6     7    1
    13     7     8    2
    14     7    10    1
    15     8     9    1
    16     9    31    1
    17    10    14    1
    18    10    32    1
    19    10    33    1
    20    11    12    1
    21    11    13    1
    22    11    26    2
    23    11    27    2
    24    12    34    1
    25    12    35    1
    26    12    36    1
    27    13    37    1
    28    14    15    2
    29    14    19    1
    30    15    16    1
    31    15    38    1
    32    16    17    2
    33    16    39    1
    34    17    18    1
    35    17    20    1
    36    18    19    2
    37    18    40    1
    38    19    41    1
    39    20    21    2
    40    20    24    1
    41    21    22    1
    42    21    42    1
    43    22    23    1
    44    22    25    1
    45    23    24    2
    46    24    43    1
    47    25    44    1
    48    25    45    1
    49    25    46    1
