@<TRIPOS>MOLECULE
lig
  49   53 0 0 0
SMALL
NO_CHARGES


@<TRIPOS>ATOM
      1 C_00         -6.3961   12.3155  -12.0234 c4      1  lig       0.007456
      2 C_01         -6.5478   11.7864  -10.7392 c5      1  lig      -0.126501
      3 C_02         -7.7431   10.5278  -13.0269 c6      1  lig      -0.240722
      4 C_03         -7.0034   11.6993  -13.1368 c7      1  lig      -0.122021
      5 C_04         -7.8411    9.9886  -11.7443 c8      1  lig       0.044811
      6 C_05         -7.2672   10.6062  -10.5986 c9      1  lig      -0.026233
      7 C_06         -7.6276    9.7408   -9.5022 cb      1  lig       0.325151
      8 N_07         -8.2893    8.7195   -9.9713 n0      1  lig      -0.532067
      9 N_08         -8.4361    8.8492  -11.2847 ng      1  lig      -0.100931
     10 C_09         -7.3404    9.8857   -8.0208 ci      1  lig      -0.041583
     11 C_0a         -5.4704   14.2158  -13.3316 cj      1  lig       0.536568
     12 C_0b         -4.5218   15.3458  -13.0035 ck      1  lig      -0.160743
     13 N_0c         -5.5814   13.4696  -12.1774 nr      1  lig      -0.107076
     14 C_0d         -5.9630   10.4847   -7.7359 cm      1  lig      -0.014978
     15 C_0e         -5.8538   11.7563   -7.1621 cn      1  lig      -0.193527
     16 C_0f         -4.5953   12.3060   -6.9160 co      1  lig      -0.089768
     17 C_0g         -3.4449   11.5852   -7.2379 cq      1  lig      -0.014890
     18 C_0h         -3.5560   10.3115   -7.8043 cr      1  lig      -0.121266
     19 C_0i         -4.8130    9.7655   -8.0531 cs      1  lig      -0.162574
     20 C_0j         -2.0905   12.1634   -6.9778 ct      1  lig      -0.044812
     21 C_0k         -1.7398   13.4211   -6.5005 cw      1  lig      -0.178128
     22 N_0l         -0.4007   13.4556   -6.4362 nw      1  lig       0.214511
     23 N_0m          0.1858   12.3500   -6.8082 nA      1  lig      -0.472709
     24 C_0n         -0.8018   11.5473   -7.1675 cA      1  lig       0.067223
     25 C_0o          0.4333   14.5672   -6.0053 cB      1  lig      -0.169387
     26 O_0p         -6.0131   14.0330  -14.4162 o0      1  lig      -0.580072
     27 C_0q         -4.6790   13.9767  -11.1295 cC      1  lig      -0.059803
     28 C_0r         -4.0830   15.2556  -11.5883 cD      1  lig      -0.022559
     29 H_0s         -6.0962   12.2658   -9.8826 h0      1  lig       0.076335
     30 H_0t         -8.1870   10.0577  -13.8855 h6      1  lig       0.159867
     31 H_0u         -6.8795   12.1118  -14.1147 h7      1  lig       0.179278
     32 H_0v         -8.9222    8.1396  -11.8208 h8      1  lig       0.324518
     33 H_0w         -8.0988   10.5399   -7.5898 h9      1  lig       0.063521
     34 H_0x         -7.4364    8.9228   -7.5168 hb      1  lig       0.063521
     35 H_0y         -4.9540   16.3099  -13.2674 hd      1  lig       0.075467
     36 H_0z         -3.6823   15.2203  -13.6539 he      1  lig       0.075467
     37 H_10         -6.7414   12.3166   -6.9126 hf      1  lig       0.153220
     38 H_11         -4.5135   13.2868   -6.4745 hg      1  lig       0.121958
     39 H_12         -2.6700    9.7492   -8.0515 hh      1  lig       0.114711
     40 H_13         -4.8944    8.7825   -8.4962 hi      1  lig       0.147022
     41 H_14         -2.3279   14.2814   -6.2111 hj      1  lig       0.183912
     42 H_15         -0.6186   10.5482   -7.5365 hk      1  lig       0.150940
     43 H_16          1.0982   14.8611   -6.8185 hl      1  lig       0.098713
     44 H_17          1.0414   14.2576   -5.1551 hm      1  lig       0.098713
     45 H_18         -0.1781   15.4224   -5.7186 hq      1  lig       0.098713
     46 H_19         -5.1658   14.0954  -10.1642 hr      1  lig       0.062639
     47 H_1a         -3.8858   13.2419  -10.9644 ht      1  lig       0.062639
     48 H_1b         -2.9931   15.3118  -11.4698 hu      1  lig       0.037738
     49 H_1c         -4.5445   16.0482  -11.0233 hv      1  lig       0.037738
@<TRIPOS>BOND
     1     1     2    2
     2     1     4    1
     3     1    13    1
     4     2     6    1
     5     2    29    1
     6     3     4    2
     7     3     5    1
     8     3    30    1
     9     4    31    1
    10     5     6    2
    11     5     9    1
    12     6     7    1
    13     7     8    2
    14     7    10    1
    15     8     9    1
    16     9    32    1
    17    10    14    1
    18    10    33    1
    19    10    34    1
    20    11    12    1
    21    11    13    1
    22    11    26    2
    23    12    28    1
    24    12    35    1
    25    12    36    1
    26    13    27    1
    27    14    15    2
    28    14    19    1
    29    15    16    1
    30    15    37    1
    31    16    17    2
    32    16    38    1
    33    17    18    1
    34    17    20    1
    35    18    19    2
    36    18    39    1
    37    19    40    1
    38    20    21    2
    39    20    24    1
    40    21    22    1
    41    21    41    1
    42    22    23    1
    43    22    25    1
    44    23    24    2
    45    24    42    1
    46    25    43    1
    47    25    44    1
    48    25    45    1
    49    27    28    1
    50    27    46    1
    51    27    47    1
    52    28    48    1
    53    28    49    1
