@<TRIPOS>MOLECULE
lig
  53   56 0 0 0
SMALL
NO_CHARGES


@<TRIPOS>ATOM
      1 C_00         -6.3855   12.3606  -12.0031 c4      1  lig       0.209981
      2 C_01         -6.5214   11.8004  -10.7171 c5      1  lig      -0.102845
      3 C_02         -7.6991   10.5797  -13.0384 c6      1  lig      -0.218403
      4 C_03         -6.9626   11.7779  -13.1031 c7      1  lig      -0.186092
      5 C_04         -7.8238   10.0198  -11.7523 c8      1  lig       0.020608
      6 C_05         -7.2557   10.6213  -10.5956 c9      1  lig      -0.077498
      7 C_06         -7.6268    9.7501   -9.5073 cb      1  lig       0.363019
      8 N_07         -8.3057    8.7491   -9.9816 n0      1  lig      -0.533401
      9 N_08         -8.4330    8.8776  -11.2917 ng      1  lig      -0.102597
     10 C_09         -7.3352    9.8817   -8.0196 ci      1  lig      -0.016756
     11 N_0a         -5.6205   13.5372  -12.2095 nr      1  lig      -0.655275
     12 C_0b         -5.9727   10.4835   -7.7324 cj      1  lig       0.005012
     13 C_0c         -5.8611   11.7523   -7.1657 ck      1  lig      -0.190157
     14 C_0d         -4.5946   12.2988   -6.9068 cm      1  lig      -0.082967
     15 C_0e         -3.4432   11.5806   -7.2147 cn      1  lig      -0.002535
     16 C_0f         -3.5570   10.3109   -7.7899 co      1  lig      -0.176042
     17 C_0g         -4.8253    9.7663   -8.0483 cq      1  lig      -0.133577
     18 C_0h         -2.0926   12.1556   -6.9444 cr      1  lig      -0.090181
     19 C_0i         -1.7338   13.4204   -6.4594 cs      1  lig      -0.091143
     20 N_0j         -0.4064   13.4584   -6.4114 nw      1  lig       0.144330
     21 N_0k          0.1793   12.3493   -6.7865 nA      1  lig      -0.482933
     22 C_0l         -0.7954   11.5387   -7.1512 ct      1  lig       0.058573
     23 C_0m          0.4205   14.5767   -6.0073 cw      1  lig       0.053677
     24 C_0n         -4.6894   13.8945  -11.1046 cA      1  lig       0.116239
     25 C_0o         -3.7822   15.1171  -11.3990 cB      1  lig      -0.081774
     26 N_0p         -2.3310   14.9579  -11.2532 nB      1  lig      -0.561550
     27 C_0q         -1.8099   14.4326  -10.1320 cC      1  lig       0.542030
     28 O_0r         -2.5019   14.0442   -9.2076 o0      1  lig      -0.509540
     29 C_0s         -0.2869   14.3494  -10.0364 cD      1  lig      -0.116156
     30 H_0t         -6.0445   12.2494   -9.8378 h0      1  lig       0.036894
     31 H_0u         -8.1252   10.1075  -13.9125 h6      1  lig       0.165481
     32 H_0v         -6.8195   12.2403  -14.0555 h7      1  lig       0.143146
     33 H_0w         -8.9253    8.1691  -11.8449 h8      1  lig       0.324799
     34 H_0x         -8.0887   10.5401   -7.5861 h9      1  lig       0.039438
     35 H_0y         -7.4260    8.9087   -7.5002 hb      1  lig       0.039438
     36 H_0z         -5.3500   13.7423  -13.1711 hd      1  lig       0.345145
     37 H_10         -6.7538   12.3208   -6.9277 he      1  lig       0.155204
     38 H_11         -4.5110   13.2853   -6.4615 hf      1  lig       0.110262
     39 H_12         -2.6704    9.7539   -8.0335 hg      1  lig       0.123757
     40 H_13         -4.8995    8.7870   -8.4986 hh      1  lig       0.135022
     41 H_14         -2.3188   14.2725   -6.1705 hi      1  lig       0.175730
     42 H_15         -0.5952   10.5614   -7.5429 hj      1  lig       0.154062
     43 H_16         -0.1976   15.4335   -5.7330 hk      1  lig       0.037821
     44 H_17          1.0772   14.8589   -6.8237 hl      1  lig       0.037821
     45 H_18          1.0239   14.2765   -5.1673 hm      1  lig       0.037821
     46 H_19         -4.0839   13.0222  -10.9241 hq      1  lig       0.075866
     47 H_1a         -5.1507   14.0138  -10.1183 hr      1  lig       0.075866
     48 H_1b         -4.1427   15.9632  -10.8055 ht      1  lig       0.105317
     49 H_1c         -3.9117   15.4187  -12.3919 hu      1  lig       0.105317
     50 H_1d         -1.7181   15.3243  -11.9869 hv      1  lig       0.333076
     51 H_1e          0.1612   14.8056  -10.9074 hy      1  lig       0.046890
     52 H_1f          0.0542   13.3103   -9.9607 hz      1  lig       0.046890
     53 H_1g          0.0768   14.8908   -9.1541 hA      1  lig       0.046890
@<TRIPOS>BOND
     1     1     2    2
     2     1     4    1
     3     1    11    1
     4     2     6    1
     5     2    30    1
     6     3     4    2
     7     3     5    1
     8     3    31    1
     9     4    32    1
    10     5     6    2
    11     5     9    1
    12     6     7    1
    13     7     8    2
    14     7    10    1
    15     8     9    1
    16     9    33    1
    17    10    12    1
    18    10    34    1
    19    10    35    1
    20    11    24    1
    21    11    36    1
    22    12    13    2
    23    12    17    1
    24    13    14    1
    25    13    37    1
    26    14    15    2
    27    14    38    1
    28    15    16    1
    29    15    18    1
    30    16    17    2
    31    16    39    1
    32    17    40    1
    33    18    19    2
    34    18    22    1
    35    19    20    1
    36    19    41    1
    37    20    21    1
    38    20    23    1
    39    21    22    2
    40    22    42    1
    41    23    43    1
    42    23    44    1
    43    23    45    1
    44    24    25    1
    45    24    46    1
    46    24    47    1
    47    25    26    1
    48    25    48    1
    49    25    49    1
    50    26    27    1
    51    26    50    1
    52    27    28    2
    53    27    29    1
    54    29    51    1
    55    29    52    1
    56    29    53    1
