@<TRIPOS>MOLECULE
lig
  51   55 0 0 0
SMALL
NO_CHARGES


@<TRIPOS>ATOM
      1 C_00         -6.4084   12.3297  -11.9887 c4      1  lig       0.078008
      2 C_01         -6.5165   11.7544  -10.7314 c5      1  lig      -0.057812
      3 C_02         -7.7418   10.5517  -13.0215 c6      1  lig      -0.227699
      4 C_03         -7.0245   11.7463  -13.1093 c7      1  lig      -0.156854
      5 C_04         -7.8268    9.9859  -11.7428 c8      1  lig       0.036656
      6 C_05         -7.2396   10.5800  -10.6042 c9      1  lig      -0.055212
      7 C_06         -7.6095    9.7151   -9.5092 cb      1  lig       0.330749
      8 N_07         -8.2849    8.7010   -9.9773 n0      1  lig      -0.531147
      9 N_08         -8.4373    8.8403  -11.2922 ng      1  lig      -0.100972
     10 C_09         -7.3311    9.8727   -8.0225 ci      1  lig      -0.033916
     11 N_0a         -5.6734   13.4955  -12.1182 nr      1  lig      -0.337849
     12 C_0b         -5.9616   10.4819   -7.7358 cj      1  lig      -0.018384
     13 C_0c         -4.8034    9.7678   -8.0459 ck      1  lig      -0.173857
     14 C_0d         -3.5615   10.3255   -7.7934 cm      1  lig      -0.108576
     15 C_0e         -3.4526   11.6006   -7.2315 cn      1  lig      -0.009922
     16 C_0f         -4.6161   12.3136   -6.9153 co      1  lig      -0.125411
     17 C_0g         -5.8662   11.7565   -7.1617 cq      1  lig      -0.162682
     18 C_0h         -2.1079   12.1894   -6.9634 cr      1  lig      -0.057527
     19 C_0i         -1.7834   13.4363   -6.4469 cs      1  lig      -0.188962
     20 N_0j         -0.4443   13.4911   -6.3955 nw      1  lig       0.274264
     21 N_0k          0.1636   12.4174   -6.8067 nA      1  lig      -0.490829
     22 C_0l         -0.8107   11.6018   -7.1804 ct      1  lig       0.052241
     23 C_0m          0.3735   14.6113   -5.9298 cw      1  lig      -0.196420
     24 C_0n         -5.8857   14.5071  -13.1620 cA      1  lig      -0.024984
     25 C_0o         -4.6042   14.8313  -13.9092 cB      1  lig       0.056209
     26 O_0p         -3.6374   15.2080  -12.9343 o0      1  lig      -0.397701
     27 C_0q         -3.2854   14.1223  -12.1198 cC      1  lig       0.007421
     28 C_0r         -4.5109   13.8217  -11.2574 cD      1  lig      -0.044180
     29 H_0s         -6.0682   12.2161   -9.8713 h0      1  lig       0.034676
     30 H_0t         -8.2010   10.1101  -13.8868 h6      1  lig       0.157321
     31 H_0u         -6.9267   12.2174  -14.0767 h7      1  lig       0.160740
     32 H_0v         -8.9595    8.1575  -11.8226 h8      1  lig       0.324725
     33 H_0w         -8.0925   10.5250   -7.5864 h9      1  lig       0.058980
     34 H_0x         -7.4209    8.9193   -7.5085 hb      1  lig       0.058980
     35 H_0y         -4.8800    8.7854   -8.4838 hd      1  lig       0.152936
     36 H_0z         -2.6672    9.7633   -8.0389 he      1  lig       0.116249
     37 H_10         -4.5421   13.2992   -6.4778 hf      1  lig       0.122655
     38 H_11         -6.7571   12.3125   -6.9195 hg      1  lig       0.143106
     39 H_12         -2.3892   14.2694   -6.1271 hh      1  lig       0.182135
     40 H_13         -0.6149   10.6243   -7.5849 hi      1  lig       0.156198
     41 H_14          1.0200   14.9384   -6.7449 hj      1  lig       0.102351
     42 H_15          0.9846   14.2825   -5.0890 hk      1  lig       0.102351
     43 H_16         -0.2640   15.4377   -5.6195 hl      1  lig       0.102351
     44 H_17         -6.2295   15.4249  -12.6765 hm      1  lig       0.076798
     45 H_18         -6.6795   14.2190  -13.8644 hq      1  lig       0.076798
     46 H_19         -4.6857   15.5804  -14.6607 hr      1  lig       0.071356
     47 H_1a         -4.3009   13.9383  -14.4740 ht      1  lig       0.071356
     48 H_1b         -2.3629   14.3192  -11.5703 hu      1  lig       0.083821
     49 H_1c         -3.0794   13.2286  -12.7328 hv      1  lig       0.083821
     50 H_1d         -4.6912   14.6543  -10.5882 hy      1  lig       0.112822
     51 H_1e         -4.2185   12.9480  -10.6599 hz      1  lig       0.112822
@<TRIPOS>BOND
     1     1     2    2
     2     1     4    1
     3     1    11    1
     4     2     6    1
     5     2    29    1
     6     3     4    2
     7     3     5    1
     8     3    30    1
     9     4    31    1
    10     5     6    2
    11     5     9    1
    12     6     7    1
    13     7     8    2
    14     7    10    1
    15     8     9    1
    16     9    32    1
    17    10    12    1
    18    10    33    1
    19    10    34    1
    20    11    24    1
    21    11    28    1
    22    12    13    2
    23    12    17    1
    24    13    14    1
    25    13    35    1
    26    14    15    2
    27    14    36    1
    28    15    16    1
    29    15    18    1
    30    16    17    2
    31    16    37    1
    32    17    38    1
    33    18    19    2
    34    18    22    1
    35    19    20    1
    36    19    39    1
    37    20    21    1
    38    20    23    1
    39    21    22    2
    40    22    40    1
    41    23    41    1
    42    23    42    1
    43    23    43    1
    44    24    25    1
    45    24    44    1
    46    24    45    1
    47    25    26    1
    48    25    46    1
    49    25    47    1
    50    26    27    1
    51    27    28    1
    52    27    48    1
    53    27    49    1
    54    28    50    1
    55    28    51    1
