@<TRIPOS>MOLECULE
lig
  50   54 0 0 0
SMALL
NO_CHARGES


@<TRIPOS>ATOM
      1 C_00         -6.3727   12.3493  -11.9877 c4      1  lig       0.045490
      2 C_01         -6.5190   11.8167  -10.7261 c5      1  lig      -0.143798
      3 C_02         -7.6919   10.5755  -13.0077 c6      1  lig      -0.256868
      4 C_03         -6.9476   11.7646  -13.1157 c7      1  lig      -0.099839
      5 C_04         -7.8131   10.0080  -11.7494 c8      1  lig       0.044887
      6 C_05         -7.2399   10.6155  -10.5946 c9      1  lig      -0.013118
      7 C_06         -7.6088    9.7430   -9.5107 cb      1  lig       0.340416
      8 N_07         -8.2764    8.7286   -9.9647 n0      1  lig      -0.522067
      9 N_08         -8.4188    8.8758  -11.2882 ng      1  lig      -0.081126
     10 C_09         -7.3326    9.8988   -8.0180 ci      1  lig      -0.065290
     11 S_0a         -5.4060   13.8057  -12.2007 s0      1  lig       0.780602
     12 C_0b         -5.9763   10.4855   -7.7248 cj      1  lig       0.001753
     13 C_0c         -5.8692   11.7523   -7.1523 ck      1  lig      -0.172523
     14 C_0d         -4.6115   12.3005   -6.8946 cm      1  lig      -0.121545
     15 C_0e         -3.4415   11.5837   -7.2014 cn      1  lig       0.003068
     16 C_0f         -3.5677   10.3182   -7.7642 co      1  lig      -0.085961
     17 C_0g         -4.8209    9.7630   -8.0308 cq      1  lig      -0.200467
     18 C_0h         -2.1027   12.1584   -6.9334 cr      1  lig      -0.049107
     19 C_0i         -1.7604   13.4248   -6.4226 cs      1  lig      -0.201150
     20 N_0j         -0.4260   13.4533   -6.3925 nr      1  lig       0.220080
     21 N_0k          0.1594   12.3444   -6.7934 nw      1  lig      -0.467521
     22 C_0l         -0.8210   11.5507   -7.1379 ct      1  lig       0.041027
     23 C_0m          0.4194   14.5816   -5.9703 cw      1  lig      -0.132429
     24 O_0n         -4.4605   13.4170  -13.2280 o0      1  lig      -0.495260
     25 O_0o         -6.3362   14.9020  -12.4291 o1      1  lig      -0.514414
     26 N_0p         -4.5495   14.1196  -10.6911 nA      1  lig      -0.274144
     27 C_0q         -3.3000   13.4420  -10.3686 cA      1  lig       0.021204
     28 C_0r         -2.0717   13.9935  -11.0748 cB      1  lig      -0.311054
     29 C_0s         -2.2627   14.2439   -9.6094 cC      1  lig      -0.224635
     30 H_0t         -6.0958   12.2837   -9.8431 h0      1  lig       0.130656
     31 H_0u         -8.1384   10.1166  -13.9015 h6      1  lig       0.173389
     32 H_0v         -6.8216   12.2011  -14.0642 h7      1  lig       0.158803
     33 H_0w         -8.9542    8.2051  -11.8388 h8      1  lig       0.324840
     34 H_0x         -8.1029   10.5216   -7.5592 h9      1  lig       0.069445
     35 H_0y         -7.4192    8.9159   -7.5103 hb      1  lig       0.069445
     36 H_0z         -6.7593   12.3241   -6.9156 hd      1  lig       0.147735
     37 H_10         -4.5452   13.3016   -6.4614 he      1  lig       0.133792
     38 H_11         -2.6739    9.7489   -8.0044 hf      1  lig       0.104021
     39 H_12         -4.8885    8.7827   -8.4653 hg      1  lig       0.158430
     40 H_13         -2.3647   14.2437   -6.1001 hh      1  lig       0.223094
     41 H_14         -0.6238   10.5910   -7.5497 hi      1  lig       0.155629
     42 H_15          1.0441   14.8389   -6.8193 hj      1  lig       0.093069
     43 H_16          1.0232   14.2959   -5.1361 hk      1  lig       0.093069
     44 H_17         -0.2125   15.4354   -5.7291 hl      1  lig       0.093069
     45 H_18         -4.8494   14.9008  -10.1205 hm      1  lig       0.164589
     46 H_19         -3.3804   12.3527  -10.1831 hq      1  lig       0.091914
     47 H_1a         -1.2874   13.2998  -11.3738 hr      1  lig       0.148636
     48 H_1b         -2.1931   14.8215  -11.7603 ht      1  lig       0.148636
     49 H_1c         -2.5807   15.2116   -9.2431 hu      1  lig       0.125764
     50 H_1d         -1.5514   13.7432   -8.9374 hv      1  lig       0.125764
@<TRIPOS>BOND
     1     1     2    2
     2     1     4    1
     3     1    11    1
     4     2     6    1
     5     2    30    1
     6     3     4    2
     7     3     5    1
     8     3    31    1
     9     4    32    1
    10     5     6    2
    11     5     9    1
    12     6     7    1
    13     7     8    2
    14     7    10    1
    15     8     9    1
    16     9    33    1
    17    10    12    1
    18    10    34    1
    19    10    35    1
    20    11    24    2
    21    11    25    2
    22    11    26    1
    23    12    13    2
    24    12    17    1
    25    13    14    1
    26    13    36    1
    27    14    15    2
    28    14    37    1
    29    15    16    1
    30    15    18    1
    31    16    17    2
    32    16    38    1
    33    17    39    1
    34    18    19    2
    35    18    22    1
    36    19    20    1
    37    19    40    1
    38    20    21    1
    39    20    23    1
    40    21    22    2
    41    22    41    1
    42    23    42    1
    43    23    43    1
    44    23    44    1
    45    26    27    1
    46    26    45    1
    47    27    28    1
    48    27    29    1
    49    27    46    1
    50    28    29    1
    51    28    47    1
    52    28    48    1
    53    29    49    1
    54    29    50    1
