@<TRIPOS>MOLECULE
lig
  53   57 0 0 0
SMALL
NO_CHARGES


@<TRIPOS>ATOM
      1 C_00         -6.3720   12.3564  -12.0094 c4      1  lig      -0.014760
      2 C_01         -6.5328   11.8103  -10.7336 c5      1  lig      -0.177103
      3 C_02         -7.7318   10.5755  -13.0290 c6      1  lig      -0.251692
      4 C_03         -6.9898   11.7633  -13.1279 c7      1  lig      -0.114937
      5 C_04         -7.8210   10.0065  -11.7558 c8      1  lig       0.044801
      6 C_05         -7.2477   10.6184  -10.6026 c9      1  lig       0.009612
      7 C_06         -7.6140    9.7458   -9.5136 cb      1  lig       0.319050
      8 N_07         -8.2690    8.7218   -9.9879 n0      1  lig      -0.530400
      9 N_08         -8.4092    8.8538  -11.2990 ng      1  lig      -0.092557
     10 C_09         -7.3381    9.8926   -8.0280 ci      1  lig      -0.011804
     11 N_0a         -4.3458   13.7121  -11.5140 nr      1  lig      -0.167453
     12 C_0b         -5.5478   13.6364  -12.1864 cj      1  lig       0.525614
     13 O_0c         -5.9572   14.5395  -12.9136 o0      1  lig      -0.598169
     14 C_0d         -5.9581   10.4851   -7.7363 ck      1  lig       0.022429
     15 C_0e         -4.8068    9.7633   -8.0566 cm      1  lig      -0.188574
     16 C_0f         -3.5506   10.3101   -7.8085 cn      1  lig      -0.122215
     17 C_0g         -3.4405   11.5856   -7.2383 co      1  lig      -0.008035
     18 C_0h         -4.5911   12.3019   -6.9155 cq      1  lig      -0.084405
     19 C_0i         -5.8461   11.7538   -7.1583 cr      1  lig      -0.197657
     20 C_0j         -2.0993   12.1777   -6.9729 cs      1  lig      -0.072363
     21 C_0k         -1.7708   13.4214   -6.4416 ct      1  lig      -0.162498
     22 N_0l         -0.4313   13.4856   -6.3949 nw      1  lig       0.216151
     23 N_0m          0.1723   12.4145   -6.8299 nA      1  lig      -0.463030
     24 C_0n         -0.8042   11.6008   -7.2039 cw      1  lig       0.053832
     25 C_0o          0.3889   14.5981   -5.9187 cA      1  lig      -0.348788
     26 C_0p         -3.6987   12.5799  -10.8351 cB      1  lig       0.071314
     27 C_0q         -2.1930   12.9387  -10.9658 cC      1  lig       0.168762
     28 C_0r         -2.1862   14.4653  -10.9438 cD      1  lig       0.183106
     29 C_0s         -3.5086   14.9068  -11.5988 cE      1  lig      -0.282746
     30 O_0t         -1.6500   12.4417  -12.1854 o1      1  lig      -0.675681
     31 H_0u         -6.1228   12.3020   -9.8704 h0      1  lig       0.100302
     32 H_0v         -8.1946   10.1248  -13.8941 h6      1  lig       0.163602
     33 H_0w         -6.8719   12.2188  -14.1038 h7      1  lig       0.168717
     34 H_0x         -8.9012    8.1471  -11.8351 h8      1  lig       0.326250
     35 H_0y         -8.1102   10.5319   -7.5935 h9      1  lig       0.047563
     36 H_0z         -7.4404    8.9270   -7.5371 hb      1  lig       0.047563
     37 H_10         -4.8882    8.7805   -8.5006 hd      1  lig       0.154411
     38 H_11         -2.6630    9.7449   -8.0588 he      1  lig       0.124252
     39 H_12         -4.5090   13.2838   -6.4768 hf      1  lig       0.105306
     40 H_13         -6.7306   12.3145   -6.9043 hg      1  lig       0.148486
     41 H_14         -2.3781   14.2464   -6.1018 hh      1  lig       0.201332
     42 H_15         -0.6071   10.6213   -7.6157 hi      1  lig       0.157726
     43 H_16         -0.2361   15.4217   -5.5765 hj      1  lig       0.149093
     44 H_17          1.0353   14.9583   -6.7244 hk      1  lig       0.149093
     45 H_18          1.0204   14.2664   -5.0904 hl      1  lig       0.149093
     46 H_19         -3.9494   12.5468   -9.7772 hm      1  lig       0.044901
     47 H_1a         -3.8987   11.6278  -11.3169 hq      1  lig       0.044901
     48 H_1b         -1.6028   12.5034  -10.1600 hr      1  lig       0.057675
     49 H_1c         -2.1219   14.8241   -9.9090 ht      1  lig      -0.049567
     50 H_1d         -1.3279   14.8751  -11.4738 hu      1  lig      -0.049567
     51 H_1e         -3.3274   15.2143  -12.6293 hv      1  lig       0.140996
     52 H_1f         -3.9689   15.7190  -11.0435 hy      1  lig       0.140996
     53 H_1g         -0.7819   12.8449  -12.3329 hz      1  lig       0.427072
@<TRIPOS>BOND
     1     1     2    2
     2     1     4    1
     3     1    12    1
     4     2     6    1
     5     2    31    1
     6     3     4    2
     7     3     5    1
     8     3    32    1
     9     4    33    1
    10     5     6    2
    11     5     9    1
    12     6     7    1
    13     7     8    2
    14     7    10    1
    15     8     9    1
    16     9    34    1
    17    10    14    1
    18    10    35    1
    19    10    36    1
    20    11    12    1
    21    11    26    1
    22    11    29    1
    23    12    13    2
    24    14    15    2
    25    14    19    1
    26    15    16    1
    27    15    37    1
    28    16    17    2
    29    16    38    1
    30    17    18    1
    31    17    20    1
    32    18    19    2
    33    18    39    1
    34    19    40    1
    35    20    21    2
    36    20    24    1
    37    21    22    1
    38    21    41    1
    39    22    23    1
    40    22    25    1
    41    23    24    2
    42    24    42    1
    43    25    43    1
    44    25    44    1
    45    25    45    1
    46    26    27    1
    47    26    46    1
    48    26    47    1
    49    27    28    1
    50    27    30    1
    51    27    48    1
    52    28    29    1
    53    28    49    1
    54    28    50    1
    55    29    51    1
    56    29    52    1
    57    30    53    1
