@<TRIPOS>MOLECULE
lig
  53   57 0 0 0
SMALL
NO_CHARGES


@<TRIPOS>ATOM
      1 C_00         -6.3709   12.3579  -12.0062 c4      1  lig      -0.015919
      2 C_01         -6.5187   11.8083  -10.7296 c5      1  lig      -0.151577
      3 C_02         -7.7194   10.5704  -13.0321 c6      1  lig      -0.240752
      4 C_03         -6.9838   11.7645  -13.1240 c7      1  lig      -0.134172
      5 C_04         -7.8186   10.0073  -11.7576 c8      1  lig       0.037610
      6 C_05         -7.2434   10.6206  -10.5991 c9      1  lig       0.008780
      7 C_06         -7.6160    9.7494   -9.5117 cb      1  lig       0.319693
      8 N_07         -8.2808    8.7336   -9.9894 n0      1  lig      -0.528360
      9 N_08         -8.4141    8.8594  -11.3008 ng      1  lig      -0.086350
     10 C_09         -7.3385    9.8886   -8.0248 ci      1  lig      -0.030560
     11 N_0a         -4.3631   13.7190  -11.4993 nr      1  lig      -0.187897
     12 C_0b         -5.5500   13.6364  -12.1907 cj      1  lig       0.525555
     13 O_0c         -5.9462   14.5251  -12.9474 o0      1  lig      -0.587056
     14 C_0d         -5.9607   10.4852   -7.7356 ck      1  lig       0.020153
     15 C_0e         -4.8097    9.7639   -8.0527 cm      1  lig      -0.193045
     16 C_0f         -3.5522   10.3124   -7.8024 cn      1  lig      -0.115868
     17 C_0g         -3.4444   11.5885   -7.2376 co      1  lig       0.007505
     18 C_0h         -4.5952   12.3052   -6.9174 cq      1  lig      -0.100294
     19 C_0i         -5.8509   11.7557   -7.1626 cr      1  lig      -0.197277
     20 C_0j         -2.1000   12.1783   -6.9759 cs      1  lig      -0.082167
     21 C_0k         -1.7654   13.4353   -6.4786 ct      1  lig      -0.159551
     22 N_0l         -0.4305   13.4892   -6.4172 nw      1  lig       0.164769
     23 N_0m          0.1699   12.4025   -6.8093 nA      1  lig      -0.456498
     24 C_0n         -0.8029   11.5856   -7.1770 cw      1  lig       0.053290
     25 C_0o          0.3883   14.6074   -5.9669 cA      1  lig      -0.108957
     26 C_0p         -3.5134   14.9066  -11.6049 cB      1  lig      -0.206399
     27 C_0q         -2.2037   14.4678  -10.9376 cC      1  lig       0.216855
     28 C_0r         -2.2231   12.9442  -10.9826 cD      1  lig      -0.073199
     29 C_0s         -3.7200   12.5740  -10.8214 cE      1  lig      -0.029877
     30 O_0t         -1.0475   15.0410  -11.4860 o1      1  lig      -0.663904
     31 H_0u         -6.0905   12.2941   -9.8658 h0      1  lig       0.106053
     32 H_0v         -8.1712   10.1113  -13.9056 h6      1  lig       0.163931
     33 H_0w         -6.8587   12.2252  -14.0930 h7      1  lig       0.168212
     34 H_0x         -8.9068    8.1511  -11.8353 h8      1  lig       0.323522
     35 H_0y         -8.1007   10.5426   -7.5968 h9      1  lig       0.055665
     36 H_0z         -7.4435    8.9253   -7.5227 hb      1  lig       0.055665
     37 H_10         -4.8934    8.7808   -8.4968 hd      1  lig       0.153212
     38 H_11         -2.6611    9.7503   -8.0475 he      1  lig       0.125512
     39 H_12         -4.5122   13.2860   -6.4777 hf      1  lig       0.118617
     40 H_13         -6.7378   12.3164   -6.9148 hg      1  lig       0.148904
     41 H_14         -2.3612   14.2786   -6.1713 hh      1  lig       0.185494
     42 H_15         -0.6010   10.5907   -7.5580 hi      1  lig       0.154996
     43 H_16         -0.2314   15.4494   -5.6631 hj      1  lig       0.088662
     44 H_17          1.0518   14.9316   -6.7715 hk      1  lig       0.088662
     45 H_18          1.0048   14.2986   -5.1213 hl      1  lig       0.088662
     46 H_19         -3.3147   15.1479  -12.6510 hm      1  lig       0.122000
     47 H_1a         -3.9414   15.7669  -11.0946 hq      1  lig       0.122000
     48 H_1b         -2.2172   14.7609   -9.8839 hr      1  lig       0.091890
     49 H_1c         -1.8304   12.6225  -11.9538 ht      1  lig       0.058106
     50 H_1d         -1.5481   12.4842  -10.2524 hu      1  lig       0.058106
     51 H_1e         -3.9432   12.6118   -9.7567 hv      1  lig       0.048470
     52 H_1f         -3.9036   11.5934  -11.2745 hy      1  lig       0.048470
     53 H_1g         -1.2694   15.5207  -12.3068 hz      1  lig       0.420658
@<TRIPOS>BOND
     1     1     2    2
     2     1     4    1
     3     1    12    1
     4     2     6    1
     5     2    31    1
     6     3     4    2
     7     3     5    1
     8     3    32    1
     9     4    33    1
    10     5     6    2
    11     5     9    1
    12     6     7    1
    13     7     8    2
    14     7    10    1
    15     8     9    1
    16     9    34    1
    17    10    14    1
    18    10    35    1
    19    10    36    1
    20    11    12    1
    21    11    26    1
    22    11    29    1
    23    12    13    2
    24    14    15    2
    25    14    19    1
    26    15    16    1
    27    15    37    1
    28    16    17    2
    29    16    38    1
    30    17    18    1
    31    17    20    1
    32    18    19    2
    33    18    39    1
    34    19    40    1
    35    20    21    2
    36    20    24    1
    37    21    22    1
    38    21    41    1
    39    22    23    1
    40    22    25    1
    41    23    24    2
    42    24    42    1
    43    25    43    1
    44    25    44    1
    45    25    45    1
    46    26    27    1
    47    26    46    1
    48    26    47    1
    49    27    28    1
    50    27    30    1
    51    27    48    1
    52    28    29    1
    53    28    49    1
    54    28    50    1
    55    29    51    1
    56    29    52    1
    57    30    53    1
