@<TRIPOS>MOLECULE
lig
  42   45 0 0 0
SMALL
NO_CHARGES


@<TRIPOS>ATOM
      1 C_00         -6.3767   12.3649  -12.0150 c4      1  lig      -0.059391
      2 C_01         -6.5300   11.8201  -10.7355 c5      1  lig      -0.161511
      3 C_02         -7.7235   10.5758  -13.0283 c6      1  lig      -0.219603
      4 C_03         -6.9848   11.7731  -13.1297 c7      1  lig      -0.120865
      5 C_04         -7.8178   10.0121  -11.7526 c8      1  lig       0.033570
      6 C_05         -7.2522   10.6205  -10.6098 c9      1  lig      -0.001114
      7 C_06         -7.6101    9.7439   -9.5117 cb      1  lig       0.330182
      8 N_07         -8.2784    8.7249   -9.9778 n0      1  lig      -0.539730
      9 N_08         -8.4134    8.8570  -11.2978 ng      1  lig      -0.068902
     10 C_09         -7.3337    9.8935   -8.0288 ci      1  lig      -0.060257
     11 N_0a         -4.4165   13.6746  -11.4876 nr      1  lig      -0.886022
     12 C_0b         -5.5534   13.6276  -12.1919 cj      1  lig       0.720362
     13 O_0c         -5.9234   14.5178  -12.9405 o0      1  lig      -0.600281
     14 C_0d         -5.9640   10.4853   -7.7356 ck      1  lig       0.038194
     15 C_0e         -4.8116    9.7640   -8.0536 cm      1  lig      -0.173547
     16 C_0f         -3.5500   10.3127   -7.8058 cn      1  lig      -0.154186
     17 C_0g         -3.4411   11.5873   -7.2364 co      1  lig       0.028897
     18 C_0h         -4.5925   12.3023   -6.9174 cq      1  lig      -0.116936
     19 C_0i         -5.8510   11.7510   -7.1622 cr      1  lig      -0.215056
     20 C_0j         -2.0968   12.1763   -6.9669 cs      1  lig      -0.033784
     21 C_0k         -1.7702   13.4221   -6.4317 ct      1  lig      -0.262129
     22 N_0l         -0.4283   13.4864   -6.3849 nw      1  lig       0.349407
     23 N_0m          0.1730   12.4042   -6.8287 nA      1  lig      -0.503891
     24 C_0n         -0.8019   11.5974   -7.2024 cw      1  lig       0.041473
     25 C_0o          0.3914   14.5951   -5.9029 cA      1  lig      -0.263364
     26 H_0p         -6.0971   12.2907   -9.8695 h0      1  lig       0.128148
     27 H_0q         -8.1793   10.1210  -13.8973 h6      1  lig       0.157157
     28 H_0r         -6.8799   12.2200  -14.1007 h7      1  lig       0.155048
     29 H_0s         -8.9071    8.1535  -11.8388 h8      1  lig       0.322271
     30 H_0t         -8.1037   10.5390   -7.5949 h9      1  lig       0.063228
     31 H_0u         -7.4435    8.9258   -7.5263 hb      1  lig       0.063228
     32 H_0v         -3.8100   14.4821  -11.5579 hd      1  lig       0.378347
     33 H_0w         -4.1203   12.8861  -10.9327 he      1  lig       0.378347
     34 H_0x         -4.8859    8.7811   -8.4956 hf      1  lig       0.153770
     35 H_0y         -2.6665    9.7473   -8.0499 hg      1  lig       0.122679
     36 H_0z         -4.5168   13.2894   -6.4781 hh      1  lig       0.125899
     37 H_10         -6.7359   12.3175   -6.9096 hi      1  lig       0.147500
     38 H_11         -2.3834   14.2452   -6.0920 hj      1  lig       0.191948
     39 H_12         -0.6064   10.6335   -7.6221 hk      1  lig       0.160559
     40 H_13         -0.2430   15.4167   -5.5635 hl      1  lig       0.116785
     41 H_14          1.0295   14.9490   -6.7075 hm      1  lig       0.116785
     42 H_15          1.0108   14.2566   -5.0798 hq      1  lig       0.116785
@<TRIPOS>BOND
     1     1     2    2
     2     1     4    1
     3     1    12    1
     4     2     6    1
     5     2    26    1
     6     3     4    2
     7     3     5    1
     8     3    27    1
     9     4    28    1
    10     5     6    2
    11     5     9    1
    12     6     7    1
    13     7     8    2
    14     7    10    1
    15     8     9    1
    16     9    29    1
    17    10    14    1
    18    10    30    1
    19    10    31    1
    20    11    12    1
    21    11    32    1
    22    11    33    1
    23    12    13    2
    24    14    15    2
    25    14    19    1
    26    15    16    1
    27    15    34    1
    28    16    17    2
    29    16    35    1
    30    17    18    1
    31    17    20    1
    32    18    19    2
    33    18    36    1
    34    19    37    1
    35    20    21    2
    36    20    24    1
    37    21    22    1
    38    21    38    1
    39    22    23    1
    40    22    25    1
    41    23    24    2
    42    24    39    1
    43    25    40    1
    44    25    41    1
    45    25    42    1
