@<TRIPOS>MOLECULE
lig
  49   53 0 0 0
SMALL
NO_CHARGES


@<TRIPOS>ATOM
      1 C_00         -6.3918   12.3765  -12.0158 c4      1  lig      -0.042104
      2 C_01         -6.5335   11.8201  -10.7317 c5      1  lig      -0.196469
      3 C_02         -7.7273   10.5795  -13.0319 c6      1  lig      -0.242219
      4 C_03         -7.0082   11.7773  -13.1176 c7      1  lig      -0.099413
      5 C_04         -7.8294   10.0116  -11.7546 c8      1  lig       0.049508
      6 C_05         -7.2533   10.6299  -10.5984 c9      1  lig       0.013116
      7 C_06         -7.6133    9.7501   -9.5115 cb      1  lig       0.313808
      8 N_07         -8.2802    8.7340   -9.9853 n0      1  lig      -0.523518
      9 N_08         -8.4149    8.8602  -11.2994 ng      1  lig      -0.093267
     10 C_09         -7.3368    9.8898   -8.0240 ci      1  lig      -0.044527
     11 N_0a         -4.3580   13.5891  -11.5451 nr      1  lig      -0.405322
     12 C_0b         -5.5327   13.6029  -12.2131 cj      1  lig       0.561896
     13 O_0c         -5.8791   14.5089  -12.9726 o0      1  lig      -0.571885
     14 C_0d         -5.9622   10.4818   -7.7351 ck      1  lig       0.013284
     15 C_0e         -5.8525   11.7570   -7.1642 cm      1  lig      -0.202380
     16 C_0f         -4.5920   12.3049   -6.9193 cn      1  lig      -0.123234
     17 C_0g         -3.4386   11.5825   -7.2408 co      1  lig       0.034314
     18 C_0h         -3.5579   10.3128   -7.8038 cq      1  lig      -0.153569
     19 C_0i         -4.8126    9.7642   -8.0521 cr      1  lig      -0.175020
     20 C_0j         -2.0919   12.1643   -6.9829 cs      1  lig      -0.017044
     21 C_0k         -1.7362   13.4287   -6.5051 ct      1  lig      -0.192758
     22 N_0l         -0.4017   13.4552   -6.4435 nw      1  lig       0.182718
     23 N_0m          0.1850   12.3496   -6.8156 nA      1  lig      -0.452199
     24 C_0n         -0.8078   11.5460   -7.1722 cw      1  lig       0.008002
     25 C_0o          0.4351   14.5688   -6.0125 cA      1  lig      -0.101389
     26 C_0p         -3.3172   14.5865  -11.7755 cB      1  lig      -0.079002
     27 C_0q         -1.8924   14.0513  -11.7355 cC      1  lig      -0.219963
     28 C_0r         -2.3932   14.9579  -10.6450 cD      1  lig      -0.090300
     29 H_0s         -6.0761   12.2984   -9.8711 h0      1  lig       0.131993
     30 H_0t         -8.1698   10.1086  -13.9039 h6      1  lig       0.161997
     31 H_0u         -6.8733   12.2288  -14.0942 h7      1  lig       0.155569
     32 H_0v         -8.9079    8.1545  -11.8361 h8      1  lig       0.325061
     33 H_0w         -8.0997   10.5389   -7.5945 h9      1  lig       0.064202
     34 H_0x         -7.4394    8.9219   -7.5215 hb      1  lig       0.064202
     35 H_0y         -4.1267   12.7910  -10.9599 hd      1  lig       0.276571
     36 H_0z         -6.7395   12.3169   -6.9150 he      1  lig       0.153790
     37 H_10         -4.5095   13.2881   -6.4791 hf      1  lig       0.122259
     38 H_11         -2.6661    9.7465   -8.0484 hg      1  lig       0.126000
     39 H_12         -4.8936    8.7803   -8.4947 hh      1  lig       0.152481
     40 H_13         -2.3246   14.2793   -6.2163 hi      1  lig       0.200715
     41 H_14         -0.6152   10.5460   -7.5374 hj      1  lig       0.166627
     42 H_15         -0.1734   15.4251   -5.7269 hk      1  lig       0.081796
     43 H_16          1.1032   14.8639   -6.8228 hl      1  lig       0.081796
     44 H_17          1.0431   14.2630   -5.1616 hm      1  lig       0.081796
     45 H_18         -3.5076   15.3404  -12.5551 hq      1  lig       0.168449
     46 H_19         -1.1365   14.4228  -12.4281 hr      1  lig       0.114946
     47 H_1a         -1.7094   13.0055  -11.4933 ht      1  lig       0.114946
     48 H_1b         -2.5847   14.5469   -9.6579 hu      1  lig       0.051870
     49 H_1c         -1.9864   15.9623  -10.6317 hv      1  lig       0.051870
@<TRIPOS>BOND
     1     1     2    2
     2     1     4    1
     3     1    12    1
     4     2     6    1
     5     2    29    1
     6     3     4    2
     7     3     5    1
     8     3    30    1
     9     4    31    1
    10     5     6    2
    11     5     9    1
    12     6     7    1
    13     7     8    2
    14     7    10    1
    15     8     9    1
    16     9    32    1
    17    10    14    1
    18    10    33    1
    19    10    34    1
    20    11    12    1
    21    11    26    1
    22    11    35    1
    23    12    13    2
    24    14    15    2
    25    14    19    1
    26    15    16    1
    27    15    36    1
    28    16    17    2
    29    16    37    1
    30    17    18    1
    31    17    20    1
    32    18    19    2
    33    18    38    1
    34    19    39    1
    35    20    21    2
    36    20    24    1
    37    21    22    1
    38    21    40    1
    39    22    23    1
    40    22    25    1
    41    23    24    2
    42    24    41    1
    43    25    42    1
    44    25    43    1
    45    25    44    1
    46    26    27    1
    47    26    28    1
    48    26    45    1
    49    27    28    1
    50    27    46    1
    51    27    47    1
    52    28    48    1
    53    28    49    1
