@<TRIPOS>MOLECULE
lig
  49   53 0 0 0
SMALL
NO_CHARGES


@<TRIPOS>ATOM
      1 C_00         -6.4024   12.3461  -12.0147 c4      1  lig      -0.062247
      2 C_01         -6.5825   11.7781  -10.7426 c5      1  lig      -0.216851
      3 C_02         -7.7347   10.5660  -13.0395 c6      1  lig      -0.242322
      4 C_03         -6.9966   11.7550  -13.1361 c7      1  lig      -0.087959
      5 C_04         -7.8265    9.9936  -11.7632 c8      1  lig       0.050855
      6 C_05         -7.2675   10.6024  -10.6199 c9      1  lig       0.050176
      7 C_06         -7.6234    9.7358   -9.5255 cb      1  lig       0.281681
      8 N_07         -8.2741    8.7136   -9.9910 n0      1  lig      -0.506627
      9 N_08         -8.4130    8.8453  -11.3044 ng      1  lig      -0.105868
     10 C_09         -7.3406    9.8933   -8.0338 ci      1  lig       0.002911
     11 N_0a         -4.5538   13.8407  -11.3379 nr      1  lig      -0.384367
     12 C_0b         -5.6005   13.6490  -12.1765 cj      1  lig       0.611365
     13 O_0c         -5.9196   14.4808  -13.0199 o0      1  lig      -0.573662
     14 C_0d         -5.9590   10.4855   -7.7382 ck      1  lig       0.023058
     15 C_0e         -4.8075    9.7636   -8.0570 cm      1  lig      -0.194269
     16 C_0f         -3.5513   10.3099   -7.8070 cn      1  lig      -0.129644
     17 C_0g         -3.4406   11.5840   -7.2355 co      1  lig       0.004713
     18 C_0h         -4.5915   12.3007   -6.9126 cq      1  lig      -0.097963
     19 C_0i         -5.8470   11.7538   -7.1581 cr      1  lig      -0.199145
     20 C_0j         -2.0979   12.1738   -6.9691 cs      1  lig      -0.088470
     21 C_0k         -1.7666   13.4166   -6.4372 ct      1  lig      -0.186244
     22 N_0l         -0.4273   13.4768   -6.3903 nw      1  lig       0.225832
     23 N_0m          0.1744   12.4049   -6.8247 nA      1  lig      -0.480021
     24 C_0n         -0.8040   11.5944   -7.2012 cw      1  lig       0.055802
     25 C_0o          0.3946   14.5874   -5.9129 cA      1  lig      -0.058033
     26 C_0p         -4.1104   13.1199  -10.1564 cB      1  lig       0.020846
     27 C_0q         -3.1547   14.2611   -9.9254 cC      1  lig       0.383964
     28 C_0r         -3.7686   15.0454  -11.0979 cD      1  lig      -0.003068
     29 F_0s         -3.3454   14.7999   -8.7258 f0      1  lig      -0.240387
     30 F_0t         -1.8808   13.9286  -10.0717 f1      1  lig      -0.215051
     31 H_0u         -6.2371   12.2377   -9.8825 h0      1  lig       0.138683
     32 H_0v         -8.1965   10.1201  -13.9011 h6      1  lig       0.163907
     33 H_0w         -6.8777   12.2189  -14.1082 h7      1  lig       0.153652
     34 H_0x         -8.9048    8.1432  -11.8372 h8      1  lig       0.330764
     35 H_0y         -8.1066   10.5395   -7.5982 h9      1  lig       0.044492
     36 H_0z         -7.4470    8.9316   -7.5331 hb      1  lig       0.044492
     37 H_10         -4.8888    8.7812   -8.5015 hd      1  lig       0.165085
     38 H_11         -2.6633    9.7451   -8.0571 he      1  lig       0.123170
     39 H_12         -4.5093   13.2831   -6.4741 hf      1  lig       0.122761
     40 H_13         -6.7314   12.3149   -6.9053 hg      1  lig       0.143095
     41 H_14         -2.3717   14.2432   -6.0985 hh      1  lig       0.188030
     42 H_15         -0.6084   10.6151   -7.6146 hi      1  lig       0.156750
     43 H_16         -0.2286   15.4127   -5.5721 hj      1  lig       0.067280
     44 H_17          1.0434   14.9448   -6.7174 hk      1  lig       0.067280
     45 H_18          1.0235   14.2533   -5.0839 hl      1  lig       0.067280
     46 H_19         -3.7139   12.1065  -10.2127 hm      1  lig       0.091408
     47 H_1a         -4.9207   13.2607   -9.4790 hq      1  lig       0.091408
     48 H_1b         -4.5371   15.7574  -10.8202 hr      1  lig       0.100729
     49 H_1c         -3.0553   15.4231  -11.8251 ht      1  lig       0.100729
@<TRIPOS>BOND
     1     1     2    2
     2     1     4    1
     3     1    12    1
     4     2     6    1
     5     2    31    1
     6     3     4    2
     7     3     5    1
     8     3    32    1
     9     4    33    1
    10     5     6    2
    11     5     9    1
    12     6     7    1
    13     7     8    2
    14     7    10    1
    15     8     9    1
    16     9    34    1
    17    10    14    1
    18    10    35    1
    19    10    36    1
    20    11    12    1
    21    11    26    1
    22    11    28    1
    23    12    13    2
    24    14    15    2
    25    14    19    1
    26    15    16    1
    27    15    37    1
    28    16    17    2
    29    16    38    1
    30    17    18    1
    31    17    20    1
    32    18    19    2
    33    18    39    1
    34    19    40    1
    35    20    21    2
    36    20    24    1
    37    21    22    1
    38    21    41    1
    39    22    23    1
    40    22    25    1
    41    23    24    2
    42    24    42    1
    43    25    43    1
    44    25    44    1
    45    25    45    1
    46    26    27    1
    47    26    46    1
    48    26    47    1
    49    27    28    1
    50    27    29    1
    51    27    30    1
    52    28    48    1
    53    28    49    1
