@<TRIPOS>MOLECULE
lig
  50   54 0 0 0
SMALL
NO_CHARGES


@<TRIPOS>ATOM
      1 C_00         -6.3895   12.3678  -12.0373 c4      1  lig      -0.028079
      2 C_01         -6.4824   11.8098  -10.7511 c5      1  lig      -0.158951
      3 C_02         -7.7271   10.5745  -13.0290 c6      1  lig      -0.257964
      4 C_03         -7.0179   11.7711  -13.1287 c7      1  lig      -0.100251
      5 C_04         -7.8170   10.0145  -11.7522 c8      1  lig       0.040268
      6 C_05         -7.2238   10.6236  -10.6024 c9      1  lig       0.015540
      7 C_06         -7.6044    9.7508   -9.5065 cb      1  lig       0.312312
      8 N_07         -8.2828    8.7443   -9.9813 n0      1  lig      -0.528615
      9 N_08         -8.4172    8.8704  -11.2949 ng      1  lig      -0.085606
     10 C_09         -7.3303    9.8854   -8.0203 ci      1  lig      -0.012596
     11 N_0a         -4.3418   13.6528  -11.7950 nr      1  lig      -0.328713
     12 C_0b         -5.6106   13.6402  -12.2589 cj      1  lig       0.568859
     13 O_0c         -6.1045   14.5768  -12.8828 o0      1  lig      -0.590323
     14 C_0d         -5.9605   10.4846   -7.7337 ck      1  lig       0.027454
     15 C_0e         -4.8084    9.7674   -8.0514 cm      1  lig      -0.179248
     16 C_0f         -3.5547   10.3189   -7.8020 cn      1  lig      -0.137504
     17 C_0g         -3.4471   11.5931   -7.2348 co      1  lig       0.005033
     18 C_0h         -4.6026   12.3073   -6.9145 cq      1  lig      -0.101283
     19 C_0i         -5.8562   11.7556   -7.1614 cr      1  lig      -0.209554
     20 C_0j         -2.1021   12.1835   -6.9708 cs      1  lig      -0.067445
     21 C_0k         -1.7710   13.4390   -6.4702 ct      1  lig      -0.156914
     22 N_0l         -0.4354   13.4950   -6.4103 nw      1  lig       0.185790
     23 N_0m          0.1709   12.4112   -6.8070 nA      1  lig      -0.475530
     24 C_0n         -0.8030   11.5943   -7.1763 cw      1  lig       0.067027
     25 C_0o          0.3771   14.6141   -5.9576 cA      1  lig      -0.085808
     26 C_0p         -3.4422   12.5360  -11.3947 cB      1  lig       0.020686
     27 C_0q         -2.3230   13.6139  -11.4067 cC      1  lig       0.164517
     28 C_0r         -3.2958   14.6820  -11.9593 cD      1  lig       0.006607
     29 O_0s         -1.7380   13.9356  -10.1565 o1      1  lig      -0.594352
     30 H_0t         -6.0183   12.2923   -9.8986 h0      1  lig       0.097018
     31 H_0u         -8.1782   10.1163  -13.8942 h6      1  lig       0.165844
     32 H_0v         -6.9208   12.2371  -14.0985 h7      1  lig       0.159131
     33 H_0w         -8.9179    8.1685  -11.8303 h8      1  lig       0.323741
     34 H_0x         -8.0933   10.5376   -7.5920 h9      1  lig       0.050902
     35 H_0y         -7.4329    8.9217   -7.5144 hb      1  lig       0.050902
     36 H_0z         -4.8892    8.7843   -8.4947 hd      1  lig       0.154013
     37 H_10         -2.6640    9.7586   -8.0484 he      1  lig       0.126190
     38 H_11         -4.5243   13.2889   -6.4732 hf      1  lig       0.127671
     39 H_12         -6.7461   12.3134   -6.9147 hg      1  lig       0.150830
     40 H_13         -2.3729   14.2791   -6.1621 hh      1  lig       0.191057
     41 H_14         -0.6003   10.6048   -7.5653 hi      1  lig       0.151788
     42 H_15         -0.2500   15.4509   -5.6516 hj      1  lig       0.080979
     43 H_16          1.0339   14.9382   -6.7662 hk      1  lig       0.080979
     44 H_17          0.9933   14.2991   -5.1147 hl      1  lig       0.080979
     45 H_18         -3.5851   12.0468  -10.4273 hm      1  lig       0.052354
     46 H_19         -3.4005   11.8265  -12.2289 hq      1  lig       0.052354
     47 H_1a         -1.4937   13.3796  -12.0785 hr      1  lig       0.058038
     48 H_1b         -3.2410   14.9062  -13.0151 ht      1  lig       0.083291
     49 H_1c         -3.3493   15.5966  -11.3682 hu      1  lig       0.083291
     50 H_1d         -1.0327   13.3119   -9.9644 hv      1  lig       0.363291
@<TRIPOS>BOND
     1     1     2    2
     2     1     4    1
     3     1    12    1
     4     2     6    1
     5     2    30    1
     6     3     4    2
     7     3     5    1
     8     3    31    1
     9     4    32    1
    10     5     6    2
    11     5     9    1
    12     6     7    1
    13     7     8    2
    14     7    10    1
    15     8     9    1
    16     9    33    1
    17    10    14    1
    18    10    34    1
    19    10    35    1
    20    11    12    1
    21    11    26    1
    22    11    28    1
    23    12    13    2
    24    14    15    2
    25    14    19    1
    26    15    16    1
    27    15    36    1
    28    16    17    2
    29    16    37    1
    30    17    18    1
    31    17    20    1
    32    18    19    2
    33    18    38    1
    34    19    39    1
    35    20    21    2
    36    20    24    1
    37    21    22    1
    38    21    40    1
    39    22    23    1
    40    22    25    1
    41    23    24    2
    42    24    41    1
    43    25    42    1
    44    25    43    1
    45    25    44    1
    46    26    27    1
    47    26    45    1
    48    26    46    1
    49    27    28    1
    50    27    29    1
    51    27    47    1
    52    28    48    1
    53    28    49    1
    54    29    50    1
