@<TRIPOS>MOLECULE
lig
  53   57 0 0 0
SMALL
NO_CHARGES


@<TRIPOS>ATOM
      1 C_00         -6.3988   12.3548  -12.0167 c4      1  lig      -0.030604
      2 C_01         -6.5634   11.7828  -10.7362 c5      1  lig      -0.231628
      3 C_02         -7.7338   10.5694  -13.0370 c6      1  lig      -0.262044
      4 C_03         -6.9985   11.7556  -13.1278 c7      1  lig      -0.088264
      5 C_04         -7.8247    9.9971  -11.7595 c8      1  lig       0.058036
      6 C_05         -7.2595   10.6059  -10.6156 c9      1  lig       0.040192
      7 C_06         -7.6196    9.7377   -9.5218 cb      1  lig       0.293103
      8 N_07         -8.2737    8.7166   -9.9897 n0      1  lig      -0.516591
      9 N_08         -8.4125    8.8485  -11.3029 ng      1  lig      -0.107579
     10 C_09         -7.3396    9.8926   -8.0318 ci      1  lig       0.026120
     11 N_0a         -4.5445   13.8618  -11.3707 nr      1  lig      -0.339051
     12 C_0b         -5.5979   13.6472  -12.1806 cj      1  lig       0.595056
     13 O_0c         -5.9190   14.4711  -13.0424 o0      1  lig      -0.598112
     14 C_0d         -5.9590   10.4852   -7.7375 ck      1  lig       0.026224
     15 C_0e         -5.8471   11.7541   -7.1585 cm      1  lig      -0.225563
     16 C_0f         -4.5907   12.3017   -6.9141 cn      1  lig      -0.064895
     17 C_0g         -3.4394   11.5818   -7.2374 co      1  lig       0.002153
     18 C_0h         -3.5527   10.3083   -7.8066 cq      1  lig      -0.154580
     19 C_0i         -4.8082    9.7633   -8.0562 cr      1  lig      -0.159909
     20 C_0j         -2.0898   12.1596   -6.9778 cs      1  lig      -0.057835
     21 C_0k         -1.7390   13.4130   -6.4881 ct      1  lig      -0.222950
     22 N_0l         -0.3978   13.4480   -6.4305 nw      1  lig       0.256843
     23 N_0m          0.1868   12.3491   -6.8198 nA      1  lig      -0.487190
     24 C_0n         -0.8044   11.5467   -7.1770 cw      1  lig       0.103510
     25 C_0o          0.4420   14.5581   -5.9859 cA      1  lig      -0.313254
     26 C_0p         -3.7035   15.0408  -11.2447 cB      1  lig      -0.116236
     27 C_0q         -3.1688   14.3872   -9.9709 cC      1  lig       0.187388
     28 C_0r         -4.1668   13.2516  -10.0984 cD      1  lig       0.010647
     29 O_0s         -1.8336   13.9158  -10.0706 o1      1  lig      -0.396364
     30 C_0t         -0.8619   14.9477  -10.1504 cE      1  lig       0.234422
     31 H_0u         -6.1975   12.2414   -9.8778 h0      1  lig       0.148559
     32 H_0v         -8.1955   10.1215  -13.8981 h6      1  lig       0.165469
     33 H_0w         -6.8803   12.2209  -14.1051 h7      1  lig       0.156228
     34 H_0x         -8.9046    8.1451  -11.8366 h8      1  lig       0.329453
     35 H_0y         -8.1070   10.5375   -7.5971 h9      1  lig       0.034151
     36 H_0z         -7.4451    8.9300   -7.5335 hb      1  lig       0.034151
     37 H_10         -6.7321   12.3147   -6.9056 hd      1  lig       0.148496
     38 H_11         -4.5096   13.2839   -6.4750 he      1  lig       0.108632
     39 H_12         -2.6650    9.7438   -8.0571 hf      1  lig       0.129280
     40 H_13         -4.8891    8.7810   -8.5010 hg      1  lig       0.150884
     41 H_14         -2.3299   14.2629   -6.1859 hh      1  lig       0.194200
     42 H_15         -0.6250   10.5486   -7.5510 hi      1  lig       0.135962
     43 H_16         -0.1676   15.4074   -5.6822 hj      1  lig       0.135546
     44 H_17          1.1055   14.8718   -6.7964 hk      1  lig       0.135546
     45 H_18          1.0560   14.2422   -5.1385 hl      1  lig       0.135546
     46 H_19         -2.9547   15.2933  -11.9951 hm      1  lig       0.110817
     47 H_1a         -4.4087   15.8406  -11.0592 hq      1  lig       0.110817
     48 H_1b         -3.2749   14.9753   -9.0608 hr      1  lig       0.058849
     49 H_1c         -5.0117   13.4714   -9.4655 ht      1  lig       0.060665
     50 H_1d         -3.7929   12.2315  -10.0358 hu      1  lig       0.060665
     51 H_1e          0.1264   14.5023  -10.2505 hv      1  lig      -0.001654
     52 H_1f         -0.8642   15.5647   -9.2515 hy      1  lig      -0.001654
     53 H_1g         -1.0194   15.5931  -11.0166 hz      1  lig      -0.001653
@<TRIPOS>BOND
     1     1     2    2
     2     1     4    1
     3     1    12    1
     4     2     6    1
     5     2    31    1
     6     3     4    2
     7     3     5    1
     8     3    32    1
     9     4    33    1
    10     5     6    2
    11     5     9    1
    12     6     7    1
    13     7     8    2
    14     7    10    1
    15     8     9    1
    16     9    34    1
    17    10    14    1
    18    10    35    1
    19    10    36    1
    20    11    12    1
    21    11    26    1
    22    11    28    1
    23    12    13    2
    24    14    15    2
    25    14    19    1
    26    15    16    1
    27    15    37    1
    28    16    17    2
    29    16    38    1
    30    17    18    1
    31    17    20    1
    32    18    19    2
    33    18    39    1
    34    19    40    1
    35    20    21    2
    36    20    24    1
    37    21    22    1
    38    21    41    1
    39    22    23    1
    40    22    25    1
    41    23    24    2
    42    24    42    1
    43    25    43    1
    44    25    44    1
    45    25    45    1
    46    26    27    1
    47    26    46    1
    48    26    47    1
    49    27    28    1
    50    27    29    1
    51    27    48    1
    52    28    49    1
    53    28    50    1
    54    29    30    1
    55    30    51    1
    56    30    52    1
    57    30    53    1
