@<TRIPOS>MOLECULE
lig
  52   56 0 0 0
SMALL
NO_CHARGES


@<TRIPOS>ATOM
      1 C_00         -6.3714   12.3591  -12.0053 c4      1  lig      -0.008690
      2 C_01         -6.5147   11.8055  -10.7304 c5      1  lig      -0.138819
      3 C_02         -7.7273   10.5756  -13.0301 c6      1  lig      -0.250099
      4 C_03         -6.9920   11.7699  -13.1223 c7      1  lig      -0.122437
      5 C_04         -7.8210   10.0087  -11.7569 c8      1  lig       0.037077
      6 C_05         -7.2407   10.6185  -10.5997 c9      1  lig       0.001464
      7 C_06         -7.6132    9.7471   -9.5123 cb      1  lig       0.326446
      8 N_07         -8.2794    8.7320   -9.9893 n0      1  lig      -0.532936
      9 N_08         -8.4144    8.8594  -11.3005 ng      1  lig      -0.084738
     10 C_09         -7.3370    9.8875   -8.0251 ci      1  lig      -0.001770
     11 N_0a         -4.3570   13.7205  -11.5014 nr      1  lig      -0.139593
     12 C_0b         -5.5485   13.6383  -12.1900 cj      1  lig       0.476004
     13 O_0c         -5.9462   14.5274  -12.9449 o0      1  lig      -0.586501
     14 C_0d         -5.9602   10.4847   -7.7357 ck      1  lig       0.018332
     15 C_0e         -4.8090    9.7649   -8.0550 cm      1  lig      -0.181623
     16 C_0f         -3.5517   10.3138   -7.8050 cn      1  lig      -0.122036
     17 C_0g         -3.4444   11.5886   -7.2367 co      1  lig      -0.000311
     18 C_0h         -4.5954   12.3038   -6.9144 cq      1  lig      -0.092485
     19 C_0i         -5.8508   11.7543   -7.1602 cr      1  lig      -0.194393
     20 C_0j         -2.1010   12.1799   -6.9735 cs      1  lig      -0.067086
     21 C_0k         -1.7694   13.4361   -6.4722 ct      1  lig      -0.192093
     22 N_0l         -0.4342   13.4933   -6.4118 nw      1  lig       0.208391
     23 N_0m          0.1686   12.4094   -6.8087 nA      1  lig      -0.464060
     24 C_0n         -0.8030   11.5907   -7.1765 cw      1  lig       0.049034
     25 C_0o          0.3824   14.6122   -5.9578 cA      1  lig      -0.144888
     26 C_0p         -3.5015   14.9079  -11.6138 cB      1  lig      -0.075280
     27 C_0q         -2.1980   14.4648  -10.9240 cC      1  lig       0.010498
     28 C_0r         -2.2178   12.9422  -10.9897 cD      1  lig       0.001725
     29 C_0s         -3.7152   12.5763  -10.8194 cE      1  lig      -0.042654
     30 H_0t         -6.0843   12.2887   -9.8671 h0      1  lig       0.086494
     31 H_0u         -8.1823   10.1184  -13.9027 h6      1  lig       0.164695
     32 H_0v         -6.8710   12.2321  -14.0913 h7      1  lig       0.167823
     33 H_0w         -8.9081    8.1519  -11.8353 h8      1  lig       0.323510
     34 H_0x         -8.1025   10.5369   -7.5942 h9      1  lig       0.044190
     35 H_0y         -7.4387    8.9228   -7.5261 hb      1  lig       0.044190
     36 H_0z         -4.8924    8.7824   -8.5002 hd      1  lig       0.149629
     37 H_10         -2.6608    9.7523   -8.0520 he      1  lig       0.123299
     38 H_11         -4.5130   13.2841   -6.4735 hf      1  lig       0.109853
     39 H_12         -6.7376   12.3146   -6.9110 hg      1  lig       0.147787
     40 H_13         -2.3680   14.2762   -6.1614 hh      1  lig       0.209736
     41 H_14         -0.5997   10.5977   -7.5606 hi      1  lig       0.158840
     42 H_15          1.0415   14.9434   -6.7630 hj      1  lig       0.092681
     43 H_16          1.0029   14.3010   -5.1158 hk      1  lig       0.092681
     44 H_17         -0.2397   15.4500   -5.6469 hl      1  lig       0.092681
     45 H_18         -3.3040   15.1510  -12.6593 hm      1  lig       0.077048
     46 H_19         -3.9447   15.7573  -11.0941 hq      1  lig       0.077048
     47 H_1a         -2.2028   14.7688   -9.8743 hr      1  lig      -0.000760
     48 H_1b         -1.3076   14.9095  -11.3795 ht      1  lig      -0.000760
     49 H_1c         -1.8316   12.6262  -11.9647 hu      1  lig       0.034838
     50 H_1d         -1.5512   12.4812  -10.2522 hv      1  lig       0.034838
     51 H_1e         -3.9417   12.6132   -9.7555 hy      1  lig       0.041590
     52 H_1f         -3.9032   11.5968  -11.2722 hz      1  lig       0.041590
@<TRIPOS>BOND
     1     1     2    2
     2     1     4    1
     3     1    12    1
     4     2     6    1
     5     2    30    1
     6     3     4    2
     7     3     5    1
     8     3    31    1
     9     4    32    1
    10     5     6    2
    11     5     9    1
    12     6     7    1
    13     7     8    2
    14     7    10    1
    15     8     9    1
    16     9    33    1
    17    10    14    1
    18    10    34    1
    19    10    35    1
    20    11    12    1
    21    11    26    1
    22    11    29    1
    23    12    13    2
    24    14    15    2
    25    14    19    1
    26    15    16    1
    27    15    36    1
    28    16    17    2
    29    16    37    1
    30    17    18    1
    31    17    20    1
    32    18    19    2
    33    18    38    1
    34    19    39    1
    35    20    21    2
    36    20    24    1
    37    21    22    1
    38    21    40    1
    39    22    23    1
    40    22    25    1
    41    23    24    2
    42    24    41    1
    43    25    42    1
    44    25    43    1
    45    25    44    1
    46    26    27    1
    47    26    45    1
    48    26    46    1
    49    27    28    1
    50    27    47    1
    51    27    48    1
    52    28    29    1
    53    28    49    1
    54    28    50    1
    55    29    51    1
    56    29    52    1
