@<TRIPOS>MOLECULE
lig
  52   56 0 0 0
SMALL
NO_CHARGES


@<TRIPOS>ATOM
      1 C_00         -6.3676   12.3632  -12.0183 c4      1  lig      -0.013334
      2 C_01         -6.5148   11.8066  -10.7373 c5      1  lig      -0.070662
      3 C_02         -7.7147   10.5754  -13.0306 c6      1  lig      -0.226452
      4 C_03         -6.9819   11.7689  -13.1253 c7      1  lig      -0.154302
      5 C_04         -7.8143   10.0109  -11.7564 c8      1  lig       0.036504
      6 C_05         -7.2414   10.6177  -10.6023 c9      1  lig      -0.018162
      7 C_06         -7.6126    9.7466   -9.5122 cb      1  lig       0.331536
      8 N_07         -8.2846    8.7319   -9.9810 n0      1  lig      -0.526925
      9 N_08         -8.4146    8.8618  -11.2972 ng      1  lig      -0.083055
     10 C_09         -7.3363    9.8918   -8.0268 ci      1  lig      -0.070285
     11 N_0a         -4.3648   13.7196  -11.5032 nr      1  lig      -0.066926
     12 C_0b         -5.5453   13.6325  -12.1937 cj      1  lig       0.452979
     13 O_0c         -5.9402   14.5231  -12.9481 o0      1  lig      -0.570567
     14 C_0d         -5.9634   10.4852   -7.7356 ck      1  lig      -0.014197
     15 C_0e         -4.8111    9.7655   -8.0524 cm      1  lig      -0.172355
     16 C_0f         -3.5521   10.3143   -7.8018 cn      1  lig      -0.096026
     17 C_0g         -3.4442   11.5871   -7.2318 co      1  lig      -0.021678
     18 C_0h         -4.5964   12.3037   -6.9134 cq      1  lig      -0.106456
     19 C_0i         -5.8531   11.7536   -7.1622 cr      1  lig      -0.167610
     20 C_0j         -2.1000   12.1772   -6.9659 cs      1  lig      -0.061570
     21 C_0k         -1.7711   13.4213   -6.4318 ct      1  lig      -0.208380
     22 N_0l         -0.4319   13.4866   -6.3915 nw      1  lig       0.289599
     23 N_0m          0.1707   12.4146   -6.8487 nA      1  lig      -0.492649
     24 C_0n         -0.8042   11.5996   -7.2054 cw      1  lig       0.072358
     25 C_0o          0.3852   14.5927   -5.9060 cA      1  lig      -0.286535
     26 C_0p         -3.7189   12.5724  -10.8441 cB      1  lig      -0.018700
     27 C_0q         -2.2354   12.9457  -10.9732 cC      1  lig       0.399925
     28 C_0r         -2.1905   14.4637  -10.9533 cD      1  lig      -0.017703
     29 C_0s         -3.5123   14.9092  -11.5998 cE      1  lig      -0.057205
     30 F_0t         -1.7098   12.4700  -12.1164 f0      1  lig      -0.251884
     31 F_0u         -1.5166   12.4356   -9.9564 f1      1  lig      -0.235892
     32 H_0v         -6.0854   12.2873   -9.8679 h0      1  lig       0.010740
     33 H_0w         -8.1679   10.1186  -13.8995 h6      1  lig       0.161029
     34 H_0x         -6.8666   12.2247  -14.0971 h7      1  lig       0.177308
     35 H_0y         -8.9103    8.1575  -11.8383 h8      1  lig       0.324614
     36 H_0z         -8.0986   10.5466   -7.5979 h9      1  lig       0.074540
     37 H_10         -7.4470    8.9289   -7.5188 hb      1  lig       0.074540
     38 H_11         -4.8883    8.7824   -8.4957 hd      1  lig       0.148108
     39 H_12         -2.6652    9.7513   -8.0474 he      1  lig       0.118331
     40 H_13         -4.5192   13.2882   -6.4744 hf      1  lig       0.128887
     41 H_14         -6.7396   12.3174   -6.9137 hg      1  lig       0.151396
     42 H_15         -2.3784   14.2455   -6.0873 hh      1  lig       0.195735
     43 H_16         -0.6046   10.6289   -7.6232 hi      1  lig       0.153903
     44 H_17         -0.2453   15.4154   -5.5642 hj      1  lig       0.127006
     45 H_18          1.0272   14.9481   -6.7089 hk      1  lig       0.127006
     46 H_19          1.0083   14.2549   -5.0808 hl      1  lig       0.127006
     47 H_1a         -3.9411   12.5479   -9.7813 hm      1  lig       0.057057
     48 H_1b         -3.8894   11.5999  -11.3211 hq      1  lig       0.057057
     49 H_1c         -2.1219   14.8121   -9.9254 hr      1  lig       0.048424
     50 H_1d         -1.3187   14.8698  -11.4768 ht      1  lig       0.048424
     51 H_1e         -3.3209   15.2060  -12.6318 hu      1  lig       0.057749
     52 H_1f         -3.9535   15.7329  -11.0386 hv      1  lig       0.057749
@<TRIPOS>BOND
     1     1     2    2
     2     1     4    1
     3     1    12    1
     4     2     6    1
     5     2    32    1
     6     3     4    2
     7     3     5    1
     8     3    33    1
     9     4    34    1
    10     5     6    2
    11     5     9    1
    12     6     7    1
    13     7     8    2
    14     7    10    1
    15     8     9    1
    16     9    35    1
    17    10    14    1
    18    10    36    1
    19    10    37    1
    20    11    12    1
    21    11    26    1
    22    11    29    1
    23    12    13    2
    24    14    15    2
    25    14    19    1
    26    15    16    1
    27    15    38    1
    28    16    17    2
    29    16    39    1
    30    17    18    1
    31    17    20    1
    32    18    19    2
    33    18    40    1
    34    19    41    1
    35    20    21    2
    36    20    24    1
    37    21    22    1
    38    21    42    1
    39    22    23    1
    40    22    25    1
    41    23    24    2
    42    24    43    1
    43    25    44    1
    44    25    45    1
    45    25    46    1
    46    26    27    1
    47    26    47    1
    48    26    48    1
    49    27    28    1
    50    27    30    1
    51    27    31    1
    52    28    29    1
    53    28    49    1
    54    28    50    1
    55    29    51    1
    56    29    52    1
