@<TRIPOS>MOLECULE
lig
  53   57 0 0 0
SMALL
NO_CHARGES


@<TRIPOS>ATOM
      1 C_00         -6.3502   12.3553  -12.0171 c4      1  lig      -0.005438
      2 C_01         -6.4935   11.7977  -10.7426 c5      1  lig      -0.110466
      3 C_02         -7.7106   10.5751  -13.0385 c6      1  lig      -0.244523
      4 C_03         -6.9725   11.7720  -13.1357 c7      1  lig      -0.134622
      5 C_04         -7.8130   10.0109  -11.7654 c8      1  lig       0.040184
      6 C_05         -7.2309   10.6170  -10.6058 c9      1  lig       0.001760
      7 C_06         -7.6111    9.7517   -9.5147 cb      1  lig       0.298269
      8 N_07         -8.2865    8.7392   -9.9897 n0      1  lig      -0.517106
      9 N_08         -8.4152    8.8682  -11.3006 ng      1  lig      -0.090823
     10 C_09         -7.3373    9.8888   -8.0252 ci      1  lig       0.025491
     11 N_0a         -4.3541   13.7129  -11.4635 nr      1  lig      -0.083220
     12 C_0b         -5.5361   13.6428  -12.1728 cj      1  lig       0.416350
     13 O_0c         -5.9526   14.5668  -12.8773 o0      1  lig      -0.561305
     14 C_0d         -5.9623   10.4854   -7.7364 ck      1  lig       0.023115
     15 C_0e         -5.8532   11.7571   -7.1646 cm      1  lig      -0.207853
     16 C_0f         -4.5945   12.3064   -6.9180 cn      1  lig      -0.093214
     17 C_0g         -3.4446   11.5858   -7.2382 co      1  lig      -0.001210
     18 C_0h         -3.5555   10.3115   -7.8022 cq      1  lig      -0.120772
     19 C_0i         -4.8126    9.7649   -8.0516 cr      1  lig      -0.190402
     20 C_0j         -2.0930   12.1652   -6.9785 cs      1  lig      -0.066002
     21 C_0k         -1.7427   13.4236   -6.4970 ct      1  lig      -0.194131
     22 N_0l         -0.4061   13.4591   -6.4324 nw      1  lig       0.179711
     23 N_0m          0.1810   12.3567   -6.8070 nA      1  lig      -0.458516
     24 C_0n         -0.8030   11.5520   -7.1701 cw      1  lig       0.045764
     25 C_0o          0.4260   14.5701   -5.9973 cA      1  lig      -0.019587
     26 C_0p         -3.6444   15.0059  -11.3286 cB      1  lig       0.018950
     27 C_0q         -2.1848   14.8660  -11.7465 cC      1  lig      -0.079143
     28 O_0r         -1.5251   13.6965  -11.2881 o1      1  lig      -0.327397
     29 C_0s         -2.2131   12.5012  -11.6333 cD      1  lig      -0.047088
     30 C_0t         -3.6517   12.4721  -11.0120 cE      1  lig      -0.028497
     31 H_0u         -6.0533   12.2782   -9.8788 h0      1  lig       0.079775
     32 H_0v         -8.1683   10.1179  -13.9100 h6      1  lig       0.165735
     33 H_0w         -6.8596   12.2364  -14.1027 h7      1  lig       0.172731
     34 H_0x         -8.9137    8.1596  -11.8366 h8      1  lig       0.325134
     35 H_0y         -8.0978   10.5418   -7.5943 h9      1  lig       0.036504
     36 H_0z         -7.4385    8.9249   -7.5194 hb      1  lig       0.036504
     37 H_10         -6.7416   12.3179   -6.9181 hd      1  lig       0.149865
     38 H_11         -4.5106   13.2874   -6.4775 he      1  lig       0.115472
     39 H_12         -2.6670    9.7484   -8.0467 hf      1  lig       0.120481
     40 H_13         -4.8951    8.7812   -8.4943 hg      1  lig       0.158585
     41 H_14         -2.3284   14.2801   -6.2040 hh      1  lig       0.210181
     42 H_15         -0.6137   10.5521   -7.5405 hi      1  lig       0.153431
     43 H_16         -0.1842   15.4249   -5.7096 hj      1  lig       0.057591
     44 H_17          1.0950   14.8685   -6.8061 hk      1  lig       0.057591
     45 H_18          1.0338   14.2620   -5.1464 hl      1  lig       0.057591
     46 H_19         -4.1459   15.8371  -11.8396 hm      1  lig       0.060373
     47 H_1a         -3.5784   15.1813  -10.2625 hq      1  lig       0.060373
     48 H_1b         -2.2664   14.7763  -12.8186 hr      1  lig       0.103442
     49 H_1c         -1.5962   15.7735  -11.5993 ht      1  lig       0.103442
     50 H_1d         -2.2364   12.3970  -12.7259 hu      1  lig       0.106515
     51 H_1e         -1.6061   11.6676  -11.2795 hv      1  lig       0.106515
     52 H_1f         -4.1100   11.5362  -11.3555 hy      1  lig       0.046945
     53 H_1g         -3.5548   12.5406   -9.9299 hz      1  lig       0.046945
@<TRIPOS>BOND
     1     1     2    2
     2     1     4    1
     3     1    12    1
     4     2     6    1
     5     2    31    1
     6     3     4    2
     7     3     5    1
     8     3    32    1
     9     4    33    1
    10     5     6    2
    11     5     9    1
    12     6     7    1
    13     7     8    2
    14     7    10    1
    15     8     9    1
    16     9    34    1
    17    10    14    1
    18    10    35    1
    19    10    36    1
    20    11    12    1
    21    11    26    1
    22    11    30    1
    23    12    13    2
    24    14    15    2
    25    14    19    1
    26    15    16    1
    27    15    37    1
    28    16    17    2
    29    16    38    1
    30    17    18    1
    31    17    20    1
    32    18    19    2
    33    18    39    1
    34    19    40    1
    35    20    21    2
    36    20    24    1
    37    21    22    1
    38    21    41    1
    39    22    23    1
    40    22    25    1
    41    23    24    2
    42    24    42    1
    43    25    43    1
    44    25    44    1
    45    25    45    1
    46    26    27    1
    47    26    46    1
    48    26    47    1
    49    27    28    1
    50    27    48    1
    51    27    49    1
    52    28    29    1
    53    29    30    1
    54    29    50    1
    55    29    51    1
    56    30    52    1
    57    30    53    1
