@<TRIPOS>MOLECULE
lig
  54   58 0 0 0
SMALL
NO_CHARGES


@<TRIPOS>ATOM
      1 C_00         -6.3583   12.3628  -12.0152 c4      1  lig      -0.020374
      2 C_01         -6.5007   11.8020  -10.7383 c5      1  lig      -0.128223
      3 C_02         -7.7096   10.5772  -13.0382 c6      1  lig      -0.251618
      4 C_03         -6.9777   11.7759  -13.1307 c7      1  lig      -0.122751
      5 C_04         -7.8132   10.0130  -11.7619 c8      1  lig       0.044765
      6 C_05         -7.2338   10.6200  -10.6051 c9      1  lig       0.012641
      7 C_06         -7.6121    9.7513   -9.5135 cb      1  lig       0.292062
      8 N_07         -8.2831    8.7414   -9.9888 n0      1  lig      -0.516504
      9 N_08         -8.4159    8.8683  -11.3018 ng      1  lig      -0.095897
     10 C_09         -7.3364    9.8882   -8.0249 ci      1  lig       0.037631
     11 N_0a         -4.3745   13.7307  -11.4480 nr      1  lig      -0.095872
     12 C_0b         -5.5401   13.6479  -12.1823 cj      1  lig       0.456683
     13 O_0c         -5.9305   14.5456  -12.9289 o0      1  lig      -0.574586
     14 C_0d         -5.9622   10.4857   -7.7364 ck      1  lig       0.028926
     15 C_0e         -4.8106    9.7658   -8.0516 cm      1  lig      -0.190903
     16 C_0f         -3.5548   10.3163   -7.8015 cn      1  lig      -0.123363
     17 C_0g         -3.4456   11.5910   -7.2371 co      1  lig      -0.004780
     18 C_0h         -4.5995   12.3069   -6.9174 cq      1  lig      -0.100539
     19 C_0i         -5.8550   11.7570   -7.1647 cr      1  lig      -0.210943
     20 C_0j         -2.1008   12.1810   -6.9758 cs      1  lig      -0.062250
     21 C_0k         -1.7660   13.4388   -6.4773 ct      1  lig      -0.186748
     22 N_0l         -0.4314   13.4905   -6.4174 nw      1  lig       0.172445
     23 N_0m          0.1713   12.4042   -6.8124 nA      1  lig      -0.470344
     24 C_0n         -0.8030   11.5879   -7.1791 cw      1  lig       0.059538
     25 C_0o          0.3850   14.6084   -5.9658 cA      1  lig       0.016500
     26 C_0p         -3.6973   12.5089  -10.9175 cB      1  lig      -0.009279
     27 C_0q         -2.2248   12.4637  -11.4426 cC      1  lig      -0.060830
     28 N_0r         -1.4987   13.7622  -11.0653 nB      1  lig      -0.455942
     29 C_0s         -2.2038   14.9363  -11.7527 cD      1  lig      -0.208878
     30 C_0t         -3.6757   15.0331  -11.3164 cE      1  lig       0.036364
     31 H_0u         -6.0576   12.2794   -9.8741 h0      1  lig       0.086470
     32 H_0v         -8.1618   10.1180  -13.9096 h6      1  lig       0.165290
     33 H_0w         -6.8627   12.2402  -14.0994 h7      1  lig       0.169815
     34 H_0x         -8.9144    8.1615  -11.8374 h8      1  lig       0.325799
     35 H_0y         -8.0961   10.5439   -7.5948 h9      1  lig       0.032162
     36 H_0z         -7.4395    8.9258   -7.5160 hb      1  lig       0.032162
     37 H_10         -4.8927    8.7818   -8.4930 hd      1  lig       0.159255
     38 H_11         -2.6634    9.7542   -8.0449 he      1  lig       0.122861
     39 H_12         -4.5193   13.2884   -6.4757 hf      1  lig       0.124850
     40 H_13         -6.7435   12.3170   -6.9183 hg      1  lig       0.149292
     41 H_14         -2.3645   14.2802   -6.1683 hh      1  lig       0.196878
     42 H_15         -0.6001   10.5957   -7.5620 hi      1  lig       0.149906
     43 H_16         -0.2377   15.4493   -5.6626 hj      1  lig       0.044599
     44 H_17          1.0462   14.9289   -6.7713 hk      1  lig       0.044599
     45 H_18          0.9992   14.2960   -5.1216 hl      1  lig       0.044599
     46 H_19         -4.1358   11.5686  -11.2816 hm      1  lig       0.034814
     47 H_1a         -3.6934   12.5388   -9.8270 hq      1  lig       0.034814
     48 H_1b         -2.1213   12.3537  -12.5312 hr      1  lig       0.085388
     49 H_1c         -1.6337   11.6737  -10.9669 ht      1  lig       0.085388
     50 H_1d         -0.5199   13.7316  -11.3435 hu      1  lig       0.293928
     51 H_1e         -2.1273   14.7832  -12.8186 hv      1  lig       0.117994
     52 H_1f         -1.6221   15.8316  -11.5127 hy      1  lig       0.117994
     53 H_1g         -4.1533   15.8523  -11.8646 hz      1  lig       0.057106
     54 H_1h         -3.6812   15.2813  -10.2566 hA      1  lig       0.057106
@<TRIPOS>BOND
     1     1     2    2
     2     1     4    1
     3     1    12    1
     4     2     6    1
     5     2    31    1
     6     3     4    2
     7     3     5    1
     8     3    32    1
     9     4    33    1
    10     5     6    2
    11     5     9    1
    12     6     7    1
    13     7     8    2
    14     7    10    1
    15     8     9    1
    16     9    34    1
    17    10    14    1
    18    10    35    1
    19    10    36    1
    20    11    12    1
    21    11    26    1
    22    11    30    1
    23    12    13    2
    24    14    15    2
    25    14    19    1
    26    15    16    1
    27    15    37    1
    28    16    17    2
    29    16    38    1
    30    17    18    1
    31    17    20    1
    32    18    19    2
    33    18    39    1
    34    19    40    1
    35    20    21    2
    36    20    24    1
    37    21    22    1
    38    21    41    1
    39    22    23    1
    40    22    25    1
    41    23    24    2
    42    24    42    1
    43    25    43    1
    44    25    44    1
    45    25    45    1
    46    26    27    1
    47    26    46    1
    48    26    47    1
    49    27    28    1
    50    27    48    1
    51    27    49    1
    52    28    29    1
    53    28    50    1
    54    29    30    1
    55    29    51    1
    56    29    52    1
    57    30    53    1
    58    30    54    1
