@<TRIPOS>MOLECULE
lig
  55   59 0 0 0
SMALL
NO_CHARGES


@<TRIPOS>ATOM
      1 C_00         -6.3365   12.3514  -12.0169 c4      1  lig      -0.023794
      2 C_01         -6.4737   11.7818  -10.7533 c5      1  lig      -0.114389
      3 C_02         -7.7043   10.5771  -13.0419 c6      1  lig      -0.251777
      4 C_03         -6.9700   11.7706  -13.1413 c7      1  lig      -0.121909
      5 C_04         -7.8117   10.0060  -11.7679 c8      1  lig       0.041525
      6 C_05         -7.2142   10.6153  -10.6085 c9      1  lig       0.012797
      7 C_06         -7.6079    9.7475   -9.5180 cb      1  lig       0.293101
      8 N_07         -8.2848    8.7450   -9.9896 n0      1  lig      -0.517073
      9 N_08         -8.4180    8.8715  -11.3012 ng      1  lig      -0.096321
     10 C_09         -7.3345    9.8877   -8.0248 ci      1  lig       0.028934
     11 N_0a         -4.3847   13.7235  -11.4418 nr      1  lig      -0.155545
     12 C_0b         -5.5533   13.6485  -12.1711 cj      1  lig       0.468076
     13 O_0c         -5.9795   14.5724  -12.8566 o0      1  lig      -0.573506
     14 C_0d         -5.9627   10.4850   -7.7364 ck      1  lig       0.023879
     15 C_0e         -5.8552   11.7581   -7.1652 cm      1  lig      -0.205840
     16 C_0f         -4.5966   12.3060   -6.9181 cn      1  lig      -0.099385
     17 C_0g         -3.4424   11.5865   -7.2381 co      1  lig      -0.013038
     18 C_0h         -3.5593   10.3139   -7.8013 cq      1  lig      -0.132080
     19 C_0i         -4.8122    9.7647   -8.0513 cr      1  lig      -0.177710
     20 C_0j         -2.0942   12.1662   -6.9781 cs      1  lig      -0.051409
     21 C_0k         -1.7414   13.4274   -6.4937 ct      1  lig      -0.198254
     22 N_0l         -0.4089   13.4560   -6.4321 nw      1  lig       0.207900
     23 N_0m          0.1814   12.3590   -6.8068 nA      1  lig      -0.472197
     24 C_0n         -0.8029   11.5527   -7.1728 cw      1  lig       0.064752
     25 C_0o          0.4236   14.5699   -5.9945 cA      1  lig      -0.078356
     26 C_0p         -3.7594   15.0422  -11.2114 cB      1  lig       0.071240
     27 C_0q         -2.3424   15.0924  -11.7154 cC      1  lig      -0.048057
     28 C_0r         -1.5130   13.9202  -11.2644 cD      1  lig      -0.040121
     29 C_0s         -2.1771   12.5990  -11.6641 cE      1  lig       0.046531
     30 C_0t         -3.6239   12.4833  -11.0641 cF      1  lig       0.059648
     31 H_0u         -6.0203   12.2640   -9.8874 h0      1  lig       0.076549
     32 H_0v         -8.1715   10.1187  -13.9133 h6      1  lig       0.165903
     33 H_0w         -6.8628   12.2427  -14.1041 h7      1  lig       0.169191
     34 H_0x         -8.9193    8.1643  -11.8362 h8      1  lig       0.326193
     35 H_0y         -8.0961   10.5380   -7.5913 h9      1  lig       0.035227
     36 H_0z         -7.4318    8.9209   -7.5184 hb      1  lig       0.035227
     37 H_10         -6.7443   12.3180   -6.9210 hd      1  lig       0.151556
     38 H_11         -4.5105   13.2878   -6.4761 he      1  lig       0.116691
     39 H_12         -2.6670    9.7505   -8.0456 hf      1  lig       0.127345
     40 H_13         -4.8966    8.7819   -8.4933 hg      1  lig       0.158366
     41 H_14         -2.3275   14.2803   -6.2000 hh      1  lig       0.202321
     42 H_15         -0.6107   10.5549   -7.5458 hi      1  lig       0.150817
     43 H_16         -0.1867   15.4238   -5.7057 hj      1  lig       0.073447
     44 H_17          1.0912   14.8675   -6.8032 hk      1  lig       0.073447
     45 H_18          1.0319   14.2596   -5.1462 hl      1  lig       0.073447
     46 H_19         -3.6902   15.1046  -10.1315 hm      1  lig       0.020759
     47 H_1a         -4.3521   15.8883  -11.5628 hq      1  lig       0.020759
     48 H_1b         -2.4316   15.1240  -12.7851 hr      1  lig       0.031608
     49 H_1c         -1.8360   16.0057  -11.4240 ht      1  lig       0.031608
     50 H_1d         -1.2586   13.9646  -10.2112 hu      1  lig       0.001570
     51 H_1e         -0.5771   14.0998  -11.7264 hv      1  lig       0.001570
     52 H_1f         -2.1550   12.4998  -12.7567 hy      1  lig       0.012496
     53 H_1g         -1.5317   11.7847  -11.3278 hz      1  lig       0.012496
     54 H_1h         -3.5224   12.4160   -9.9808 hA      1  lig      -0.008107
     55 H_1i         -4.0278   11.5608  -11.5111 hB      1  lig      -0.008108
@<TRIPOS>BOND
     1     1     2    2
     2     1     4    1
     3     1    12    1
     4     2     6    1
     5     2    31    1
     6     3     4    2
     7     3     5    1
     8     3    32    1
     9     4    33    1
    10     5     6    2
    11     5     9    1
    12     6     7    1
    13     7     8    2
    14     7    10    1
    15     8     9    1
    16     9    34    1
    17    10    14    1
    18    10    35    1
    19    10    36    1
    20    11    12    1
    21    11    26    1
    22    11    30    1
    23    12    13    2
    24    14    15    2
    25    14    19    1
    26    15    16    1
    27    15    37    1
    28    16    17    2
    29    16    38    1
    30    17    18    1
    31    17    20    1
    32    18    19    2
    33    18    39    1
    34    19    40    1
    35    20    21    2
    36    20    24    1
    37    21    22    1
    38    21    41    1
    39    22    23    1
    40    22    25    1
    41    23    24    2
    42    24    42    1
    43    25    43    1
    44    25    44    1
    45    25    45    1
    46    26    27    1
    47    26    46    1
    48    26    47    1
    49    27    28    1
    50    27    48    1
    51    27    49    1
    52    28    29    1
    53    28    50    1
    54    28    51    1
    55    29    30    1
    56    29    52    1
    57    29    53    1
    58    30    54    1
    59    30    55    1
