@<TRIPOS>MOLECULE
lig
  49   53 0 0 0
SMALL
NO_CHARGES


@<TRIPOS>ATOM
      1 C_00         -6.3691   12.3596  -12.0090 c4      1  lig      -0.021238
      2 C_01         -6.5082   11.8040  -10.7325 c5      1  lig      -0.221861
      3 C_02         -7.7289   10.5800  -13.0272 c6      1  lig      -0.267926
      4 C_03         -6.9931   11.7723  -13.1223 c7      1  lig      -0.084683
      5 C_04         -7.8208   10.0120  -11.7545 c8      1  lig       0.063056
      6 C_05         -7.2366   10.6190  -10.6002 c9      1  lig       0.029872
      7 C_06         -7.6071    9.7463   -9.5106 cb      1  lig       0.295784
      8 N_07         -8.2820    8.7349   -9.9857 n0      1  lig      -0.517509
      9 N_08         -8.4162    8.8630  -11.2985 ng      1  lig      -0.107963
     10 C_09         -7.3216    9.8824   -8.0245 ci      1  lig       0.013494
     11 N_0a         -4.3612   13.7214  -11.5083 nr      1  lig      -0.170966
     12 C_0b         -5.5493   13.6373  -12.1980 cj      1  lig       0.496694
     13 O_0c         -5.9470   14.5254  -12.9531 o0      1  lig      -0.586893
     14 C_0d         -5.9509   10.4995   -7.7283 ck      1  lig       0.014939
     15 C_0e         -5.8798   11.7709   -7.1545 cm      1  lig      -0.237762
     16 C_0f         -4.6121   12.3149   -6.9130 cn      1  lig       0.008914
     17 C_0g         -3.4406   11.5618   -7.2441 co      1  lig       0.107224
     18 C_0h         -3.5052   10.2836   -7.8087 cq      1  lig      -0.249408
     19 C_0i         -4.7939    9.7786   -8.0440 cr      1  lig      -0.167902
     20 C_0j         -4.0930   13.5444   -6.3685 cs      1  lig       0.014055
     21 N_0k         -2.7888   13.5284   -6.3764 nw      1  lig      -0.451265
     22 N_0l         -2.3823   12.3688   -6.8823 nA      1  lig       0.128691
     23 C_0m         -0.9528   12.1034   -6.9863 ct      1  lig      -0.053215
     24 C_0n         -3.7146   12.5761  -10.8355 cw      1  lig       0.043702
     25 C_0o         -2.2074   12.9376  -10.9559 cA      1  lig       0.149633
     26 C_0p         -2.1889   14.4652  -10.9572 cB      1  lig      -0.040116
     27 C_0q         -3.5166   14.9141  -11.6000 cC      1  lig      -0.054607
     28 O_0r         -1.6730   12.4527  -12.1791 o1      1  lig      -0.643409
     29 H_0s         -6.0709   12.2831   -9.8701 h0      1  lig       0.134179
     30 H_0t         -8.1905   10.1280  -13.8946 h6      1  lig       0.166168
     31 H_0u         -6.8760   12.2352  -14.0903 h7      1  lig       0.160548
     32 H_0v         -8.9104    8.1559  -11.8349 h8      1  lig       0.328927
     33 H_0w         -8.0978   10.5174   -7.5878 h9      1  lig       0.035990
     34 H_0x         -7.4227    8.9225   -7.5162 hb      1  lig       0.035990
     35 H_0y         -6.7759   12.3187   -6.9121 hd      1  lig       0.162760
     36 H_0z         -2.6149    9.7115   -8.0486 he      1  lig       0.171862
     37 H_10         -4.9008    8.7994   -8.4826 hf      1  lig       0.171874
     38 H_11         -4.6404   14.3931   -5.9911 hg      1  lig       0.156693
     39 H_12         -0.3733   12.9511   -6.6100 hh      1  lig       0.066104
     40 H_13         -0.6843   11.9368   -8.0290 hi      1  lig       0.066104
     41 H_14         -0.7041   11.2248   -6.3903 hj      1  lig       0.066104
     42 H_15         -3.9481   12.5593   -9.7730 hk      1  lig       0.045964
     43 H_16         -3.8897   11.6058  -11.3143 hl      1  lig       0.045964
     44 H_17         -1.6065   12.4889  -10.1604 hm      1  lig       0.060370
     45 H_18         -2.1357   14.8163   -9.9239 hq      1  lig       0.022947
     46 H_19         -1.3181   14.8871  -11.4678 hr      1  lig       0.022947
     47 H_1a         -3.3218   15.2079  -12.6331 ht      1  lig       0.081679
     48 H_1b         -3.9608   15.7340  -11.0358 hu      1  lig       0.081679
     49 H_1c         -0.8094   12.8612  -12.3391 hv      1  lig       0.425812
@<TRIPOS>BOND
     1     1     2    2
     2     1     4    1
     3     1    12    1
     4     2     6    1
     5     2    29    1
     6     3     4    2
     7     3     5    1
     8     3    30    1
     9     4    31    1
    10     5     6    2
    11     5     9    1
    12     6     7    1
    13     7     8    2
    14     7    10    1
    15     8     9    1
    16     9    32    1
    17    10    14    1
    18    10    33    1
    19    10    34    1
    20    11    12    1
    21    11    24    1
    22    11    27    1
    23    12    13    2
    24    14    15    2
    25    14    19    1
    26    15    16    1
    27    15    35    1
    28    16    17    2
    29    16    20    1
    30    17    18    1
    31    17    22    1
    32    18    19    2
    33    18    36    1
    34    19    37    1
    35    20    21    2
    36    20    38    1
    37    21    22    1
    38    22    23    1
    39    23    39    1
    40    23    40    1
    41    23    41    1
    42    24    25    1
    43    24    42    1
    44    24    43    1
    45    25    26    1
    46    25    28    1
    47    25    44    1
    48    26    27    1
    49    26    45    1
    50    26    46    1
    51    27    47    1
    52    27    48    1
    53    28    49    1
