@<TRIPOS>MOLECULE
lig
  48   52 0 0 0
SMALL
NO_CHARGES


@<TRIPOS>ATOM
      1 C_00         -6.3694   12.3608  -12.0100 c4      1  lig      -0.027809
      2 C_01         -6.5170   11.8053  -10.7333 c5      1  lig      -0.159940
      3 C_02         -7.7298   10.5799  -13.0278 c6      1  lig      -0.245836
      4 C_03         -6.9915   11.7687  -13.1228 c7      1  lig      -0.119395
      5 C_04         -7.8213   10.0100  -11.7550 c8      1  lig       0.046965
      6 C_05         -7.2397   10.6196  -10.6003 c9      1  lig       0.016931
      7 C_06         -7.6092    9.7471   -9.5124 cb      1  lig       0.302218
      8 N_07         -8.2773    8.7308   -9.9855 n0      1  lig      -0.515916
      9 N_08         -8.4143    8.8607  -11.2979 ng      1  lig      -0.094795
     10 C_09         -7.3268    9.8907   -8.0257 ci      1  lig      -0.020212
     11 N_0a         -4.3565   13.7183  -11.5055 nr      1  lig      -0.262040
     12 C_0b         -5.5483   13.6363  -12.1897 cj      1  lig       0.543615
     13 O_0c         -5.9477   14.5322  -12.9368 o0      1  lig      -0.578765
     14 C_0d         -5.9513   10.4999   -7.7281 ck      1  lig       0.017058
     15 C_0e         -5.8738   11.7695   -7.1531 cm      1  lig      -0.220686
     16 C_0f         -4.6094   12.3134   -6.9136 cn      1  lig      -0.028563
     17 C_0g         -3.4376   11.5622   -7.2444 co      1  lig       0.116440
     18 C_0h         -3.5099   10.2841   -7.8101 cq      1  lig      -0.233378
     19 C_0i         -4.7961    9.7769   -8.0457 cr      1  lig      -0.186402
     20 C_0j         -4.0914   13.5427   -6.3707 cs      1  lig       0.038563
     21 N_0k         -2.7880   13.5314   -6.3772 nw      1  lig      -0.446093
     22 N_0l         -2.3819   12.3721   -6.8788 nA      1  lig       0.148570
     23 C_0m         -0.9505   12.1058   -6.9728 ct      1  lig      -0.100097
     24 C_0n         -3.7111   12.5665  -10.8449 cw      1  lig       0.025844
     25 C_0o         -2.2188   12.9372  -10.9792 cA      1  lig       0.447674
     26 C_0p         -2.1852   14.4611  -10.9536 cB      1  lig      -0.026886
     27 C_0q         -3.5089   14.9092  -11.5986 cC      1  lig      -0.094631
     28 F_0r         -1.7019   12.4742  -12.1199 f0      1  lig      -0.248141
     29 F_0s         -1.4726   12.4435   -9.9943 f1      1  lig      -0.234583
     30 H_0t         -6.0887   12.2893   -9.8700 h0      1  lig       0.104818
     31 H_0u         -8.1938   10.1290  -13.8927 h6      1  lig       0.166703
     32 H_0v         -6.8742   12.2301  -14.0952 h7      1  lig       0.167874
     33 H_0w         -8.9091    8.1541  -11.8345 h8      1  lig       0.325929
     34 H_0x         -8.0898   10.5513   -7.6049 h9      1  lig       0.049863
     35 H_0y         -7.4625    8.9415   -7.5064 hb      1  lig       0.049863
     36 H_0z         -6.7657   12.3184   -6.9082 hd      1  lig       0.159866
     37 H_10         -2.6226    9.7123   -8.0525 he      1  lig       0.160693
     38 H_11         -4.9028    8.7968   -8.4854 hf      1  lig       0.169904
     39 H_12         -4.6421   14.3891   -5.9955 hg      1  lig       0.148269
     40 H_13         -0.3702   12.9568   -6.6055 hh      1  lig       0.077796
     41 H_14         -0.6665   11.9284   -8.0015 hi      1  lig       0.077796
     42 H_15         -0.7037   11.2249   -6.3851 hj      1  lig       0.077796
     43 H_16         -3.9410   12.5478   -9.7815 hk      1  lig       0.053961
     44 H_17         -3.8926   11.6034  -11.3224 hl      1  lig       0.053961
     45 H_18         -2.1199   14.8153   -9.9199 hm      1  lig       0.047785
     46 H_19         -1.3204   14.8723  -11.4772 hq      1  lig       0.047785
     47 H_1a         -3.3224   15.2093  -12.6316 hr      1  lig       0.099814
     48 H_1b         -3.9605   15.7276  -11.0393 ht      1  lig       0.099814
@<TRIPOS>BOND
     1     1     2    2
     2     1     4    1
     3     1    12    1
     4     2     6    1
     5     2    30    1
     6     3     4    2
     7     3     5    1
     8     3    31    1
     9     4    32    1
    10     5     6    2
    11     5     9    1
    12     6     7    1
    13     7     8    2
    14     7    10    1
    15     8     9    1
    16     9    33    1
    17    10    14    1
    18    10    34    1
    19    10    35    1
    20    11    12    1
    21    11    24    1
    22    11    27    1
    23    12    13    2
    24    14    15    2
    25    14    19    1
    26    15    16    1
    27    15    36    1
    28    16    17    2
    29    16    20    1
    30    17    18    1
    31    17    22    1
    32    18    19    2
    33    18    37    1
    34    19    38    1
    35    20    21    2
    36    20    39    1
    37    21    22    1
    38    22    23    1
    39    23    40    1
    40    23    41    1
    41    23    42    1
    42    24    25    1
    43    24    43    1
    44    24    44    1
    45    25    26    1
    46    25    28    1
    47    25    29    1
    48    26    27    1
    49    26    45    1
    50    26    46    1
    51    27    47    1
    52    27    48    1
