@<TRIPOS>MOLECULE
lig
  46   50 0 0 0
SMALL
NO_CHARGES


@<TRIPOS>ATOM
      1 C_00         -6.3932   12.3500  -12.0125 c4      1  lig      -0.051916
      2 C_01         -6.5644   11.7828  -10.7394 c5      1  lig      -0.238672
      3 C_02         -7.7358   10.5711  -13.0331 c6      1  lig      -0.252413
      4 C_03         -6.9954   11.7572  -13.1322 c7      1  lig      -0.082927
      5 C_04         -7.8242    9.9989  -11.7591 c8      1  lig       0.055766
      6 C_05         -7.2585   10.6059  -10.6150 c9      1  lig       0.041203
      7 C_06         -7.6168    9.7386   -9.5213 cb      1  lig       0.298771
      8 N_07         -8.2709    8.7166   -9.9884 n0      1  lig      -0.513885
      9 N_08         -8.4108    8.8490  -11.3012 ng      1  lig      -0.106629
     10 C_09         -7.3306    9.8912   -8.0312 ci      1  lig      -0.021698
     11 N_0a         -4.5413   13.8555  -11.3648 nr      1  lig      -0.342606
     12 C_0b         -5.5934   13.6525  -12.1835 cj      1  lig       0.602069
     13 O_0c         -5.9232   14.4812  -13.0224 o0      1  lig      -0.584971
     14 C_0d         -5.9508   10.4991   -7.7310 ck      1  lig       0.002992
     15 C_0e         -5.8673   11.7672   -7.1520 cm      1  lig      -0.214239
     16 C_0f         -4.6035   12.3102   -6.9134 cn      1  lig       0.010333
     17 C_0g         -3.4392   11.5630   -7.2455 co      1  lig       0.096269
     18 C_0h         -3.5146   10.2834   -7.8141 cq      1  lig      -0.258096
     19 C_0i         -4.7998    9.7761   -8.0492 cr      1  lig      -0.154566
     20 C_0j         -4.0885   13.5395   -6.3720 cs      1  lig       0.005343
     21 N_0k         -2.7847   13.5343   -6.3770 nw      1  lig      -0.435510
     22 N_0l         -2.3791   12.3751   -6.8806 nA      1  lig       0.138138
     23 C_0m         -0.9494   12.1118   -6.9818 ct      1  lig      -0.145777
     24 C_0n         -3.7091   15.0460  -11.2252 cw      1  lig      -0.063203
     25 C_0o         -3.1570   14.3608   -9.9755 cA      1  lig       0.230467
     26 C_0p         -4.1684   13.2423  -10.1016 cB      1  lig       0.008473
     27 O_0q         -1.8246   13.9322  -10.0585 o1      1  lig      -0.669724
     28 H_0r         -6.2039   12.2411   -9.8798 h0      1  lig       0.161634
     29 H_0s         -8.2037   10.1279  -13.8914 h6      1  lig       0.164062
     30 H_0t         -6.8803   12.2184  -14.1069 h7      1  lig       0.149227
     31 H_0u         -8.9014    8.1446  -11.8359 h8      1  lig       0.329085
     32 H_0v         -8.1132   10.5144   -7.5862 h9      1  lig       0.049580
     33 H_0w         -7.4298    8.9292   -7.5318 hb      1  lig       0.049580
     34 H_0x         -6.7510   12.3165   -6.9042 hd      1  lig       0.157519
     35 H_0y         -2.6383    9.7136   -8.0589 he      1  lig       0.169498
     36 H_0z         -4.9045    8.7930   -8.4905 hf      1  lig       0.161155
     37 H_10         -4.6440   14.3809   -6.0010 hg      1  lig       0.157632
     38 H_11         -0.3673   12.9607   -6.6056 hh      1  lig       0.095675
     39 H_12         -0.6856   11.9435   -8.0238 hi      1  lig       0.095675
     40 H_13         -0.7046   11.2327   -6.3874 hj      1  lig       0.095675
     41 H_14         -2.9665   15.3166  -11.9738 hk      1  lig       0.088289
     42 H_15         -4.4384   15.8239  -11.0314 hl      1  lig       0.088289
     43 H_16         -3.2969   14.9531   -9.0651 hm      1  lig       0.103139
     44 H_17         -5.0216   13.4609   -9.4801 hq      1  lig       0.053317
     45 H_18         -3.7904   12.2246  -10.0500 hr      1  lig       0.053317
     46 H_19         -1.7501   13.4251  -10.8742 ht      1  lig       0.424660
@<TRIPOS>BOND
     1     1     2    2
     2     1     4    1
     3     1    12    1
     4     2     6    1
     5     2    28    1
     6     3     4    2
     7     3     5    1
     8     3    29    1
     9     4    30    1
    10     5     6    2
    11     5     9    1
    12     6     7    1
    13     7     8    2
    14     7    10    1
    15     8     9    1
    16     9    31    1
    17    10    14    1
    18    10    32    1
    19    10    33    1
    20    11    12    1
    21    11    24    1
    22    11    26    1
    23    12    13    2
    24    14    15    2
    25    14    19    1
    26    15    16    1
    27    15    34    1
    28    16    17    2
    29    16    20    1
    30    17    18    1
    31    17    22    1
    32    18    19    2
    33    18    35    1
    34    19    36    1
    35    20    21    2
    36    20    37    1
    37    21    22    1
    38    22    23    1
    39    23    38    1
    40    23    39    1
    41    23    40    1
    42    24    25    1
    43    24    41    1
    44    24    42    1
    45    25    26    1
    46    25    27    1
    47    25    43    1
    48    26    44    1
    49    26    45    1
    50    27    46    1
