@<TRIPOS>MOLECULE
lig
  49   53 0 0 0
SMALL
NO_CHARGES


@<TRIPOS>ATOM
      1 C_00         -6.4275   12.3453  -12.0176 c4      1  lig      -0.031257
      2 C_01         -6.6105   11.7832  -10.7429 c5      1  lig      -0.197910
      3 C_02         -7.7405   10.5587  -13.0479 c6      1  lig      -0.248980
      4 C_03         -7.0073   11.7527  -13.1387 c7      1  lig      -0.103272
      5 C_04         -7.8357    9.9872  -11.7695 c8      1  lig       0.046444
      6 C_05         -7.2848   10.5993  -10.6252 c9      1  lig       0.024474
      7 C_06         -7.6281    9.7307   -9.5318 cb      1  lig       0.312612
      8 N_07         -8.2830    8.7083   -9.9969 n0      1  lig      -0.521531
      9 N_08         -8.4214    8.8369  -11.3125 ng      1  lig      -0.100272
     10 C_09         -7.3299    9.8861   -8.0415 ci      1  lig      -0.011301
     11 N_0a         -4.6020   13.8371  -11.3112 nr      1  lig      -0.356092
     12 C_0b         -5.6232   13.6419  -12.1798 cj      1  lig       0.593048
     13 O_0c         -5.9069   14.4516  -13.0592 o0      1  lig      -0.589624
     14 C_0d         -5.9473   10.4903   -7.7303 ck      1  lig       0.013192
     15 C_0e         -5.8632   11.7421   -7.1195 cm      1  lig      -0.239472
     16 C_0f         -4.5901   12.2560   -6.8332 cn      1  lig       0.020014
     17 C_0g         -3.4296   11.5300   -7.2115 co      1  lig       0.116500
     18 C_0h         -3.5045   10.2730   -7.8164 cq      1  lig      -0.283981
     19 C_0i         -4.7945    9.7703   -8.0537 cr      1  lig      -0.135847
     20 C_0j         -4.0643   13.4351   -6.1976 cs      1  lig       0.013913
     21 N_0k         -2.7662   13.4536   -6.2615 nw      1  lig      -0.428124
     22 N_0l         -2.3669   12.3336   -6.8391 nA      1  lig       0.111951
     23 C_0m         -0.9435   12.0941   -6.9881 ct      1  lig      -0.043273
     24 C_0n         -4.0340   12.9997  -10.2404 cw      1  lig       0.067496
     25 C_0o         -3.1550   14.1929   -9.9451 cA      1  lig       0.148288
     26 C_0p         -3.8070   15.0441  -11.0419 cB      1  lig       0.031230
     27 O_0q         -3.4251   14.7437   -8.6708 o1      1  lig      -0.407127
     28 C_0r         -4.8009   14.9943   -8.3397 cC      1  lig       0.022211
     29 H_0s         -6.2751   12.2510   -9.8808 h0      1  lig       0.119070
     30 H_0t         -8.1947   10.1119  -13.9118 h6      1  lig       0.164796
     31 H_0u         -6.8796   12.2190  -14.1080 h7      1  lig       0.157680
     32 H_0v         -8.9146    8.1352  -11.8444 h8      1  lig       0.328848
     33 H_0w         -8.1022   10.5167   -7.5911 h9      1  lig       0.047674
     34 H_0x         -7.4243    8.9304   -7.5266 hb      1  lig       0.047674
     35 H_0y         -6.7518   12.2958   -6.8714 hd      1  lig       0.161897
     36 H_0z         -2.6233    9.7099   -8.0738 he      1  lig       0.178969
     37 H_10         -4.9015    8.7955   -8.5026 hf      1  lig       0.150260
     38 H_11         -4.6122   14.2555   -5.7697 hg      1  lig       0.152492
     39 H_12         -0.3704   12.9492   -6.6128 hh      1  lig       0.065666
     40 H_13         -0.6882   11.9370   -8.0353 hi      1  lig       0.065666
     41 H_14         -0.6930   11.2211   -6.3917 hj      1  lig       0.065666
     42 H_15         -4.7681   12.9512   -9.5114 hk      1  lig       0.038999
     43 H_16         -3.5878   12.0194  -10.4228 hl      1  lig       0.038999
     44 H_17         -2.0910   13.9881  -10.0141 hm      1  lig       0.065653
     45 H_18         -3.1162   15.4759  -11.7546 hq      1  lig       0.068350
     46 H_19         -4.5864   15.7240  -10.7221 hr      1  lig       0.068350
     47 H_1a         -4.7653   15.4448   -7.3800 ht      1  lig       0.063327
     48 H_1b         -5.4372   14.1236   -8.2286 hu      1  lig       0.063327
     49 H_1c         -5.3333   15.6922   -8.9422 hv      1  lig       0.063327
@<TRIPOS>BOND
     1     1     2    2
     2     1     4    1
     3     1    12    1
     4     2     6    1
     5     2    29    1
     6     3     4    2
     7     3     5    1
     8     3    30    1
     9     4    31    1
    10     5     6    2
    11     5     9    1
    12     6     7    1
    13     7     8    2
    14     7    10    1
    15     8     9    1
    16     9    32    1
    17    10    14    1
    18    10    33    1
    19    10    34    1
    20    11    12    1
    21    11    24    1
    22    11    26    1
    23    12    13    2
    24    14    15    2
    25    14    19    1
    26    15    16    1
    27    15    35    1
    28    16    17    2
    29    16    20    1
    30    17    18    1
    31    17    22    1
    32    18    19    2
    33    18    36    1
    34    19    37    1
    35    20    21    2
    36    20    38    1
    37    21    22    1
    38    22    23    1
    39    23    39    1
    40    23    40    1
    41    23    41    1
    42    24    25    1
    43    24    42    1
    44    24    43    1
    45    25    26    1
    46    25    27    1
    47    25    44    1
    48    26    45    1
    49    26    46    1
    50    27    28    1
    51    28    47    1
    52    28    48    1
    53    28    49    1
