@<TRIPOS>MOLECULE
lig
  41   43 0 0 0
SMALL
NO_CHARGES


@<TRIPOS>ATOM
      1 N_00         24.5557   41.3942    2.9358 n0      1  lig      -0.456326
      2 C_01         24.8217   42.5879    2.1047 c4      1  lig      -0.104721
      3 C_02         25.8975   43.4906    2.7355 c5      1  lig      -0.052451
      4 C_03         27.1938   42.7114    3.0214 c6      1  lig       0.413835
      5 C_04         26.8897   41.4069    3.7882 c7      1  lig      -0.054131
      6 C_05         25.7738   40.5799    3.1148 c8      1  lig      -0.077803
      7 C_06         19.6903   40.5200    5.5265 c9      1  lig       0.012392
      8 C_07         19.3824   40.8396    6.8595 cb      1  lig       0.054109
      9 C_08         18.0812   40.6300    7.3396 ci      1  lig      -0.001930
     10 C_09         17.1026   40.0983    6.5003 cj      1  lig      -0.061030
     11 C_0a         17.4075   39.7897    5.1791 ck      1  lig      -0.130900
     12 C_0b         18.6880   40.0180    4.6931 cm      1  lig      -0.205586
     13 C_0c         21.0236   40.7425    4.9440 cn      1  lig       0.298752
     14 N_0d         21.0730   41.7667    4.0636 ng      1  lig      -0.438070
     15 C_0e         22.2439   41.9993    3.4410 co      1  lig       0.017708
     16 C_0f         23.3841   41.2146    3.6674 cq      1  lig       0.447865
     17 N_0g         23.3208   40.1779    4.5575 nr      1  lig      -0.334529
     18 C_0h         22.1506   39.9550    5.2090 cr      1  lig       0.006814
     19 Cl0i         17.6473   41.0428    8.9606 a0      1  lig      -0.069419
     20 Cl0j         20.5761   41.5664    7.8891 a1      1  lig      -0.106457
     21 N_0k         28.0749   43.5997    3.9053 nw      1  lig      -0.598779
     22 C_0l         27.9744   42.4341    1.7292 cs      1  lig      -0.225381
     23 H_0m         25.0585   42.3021    1.0792 h0      1  lig       0.122397
     24 H_0n         23.9442   43.2084    1.9782 h6      1  lig       0.122397
     25 H_0o         25.4794   43.9544    3.6310 h7      1  lig       0.037815
     26 H_0p         26.0902   44.3302    2.0637 h8      1  lig       0.037815
     27 H_0q         26.5783   41.6104    4.8061 h9      1  lig       0.030007
     28 H_0r         27.7884   40.7983    3.8871 hb      1  lig       0.030007
     29 H_0s         26.1064   40.1787    2.1571 hd      1  lig       0.117212
     30 H_0t         25.5597   39.6965    3.7150 he      1  lig       0.117212
     31 H_0u         16.0953   39.9519    6.8631 hf      1  lig       0.144561
     32 H_0v         16.6529   39.3881    4.5218 hg      1  lig       0.164335
     33 H_0w         18.9075   39.7684    3.6629 hh      1  lig       0.183732
     34 H_0x         28.9389   43.1200    4.1164 hi      1  lig       0.357532
     35 H_0y         27.4154   41.7693    1.0708 hj      1  lig       0.079301
     36 H_0z         28.9337   41.9601    1.9428 hk      1  lig       0.079301
     37 H_10         28.1654   43.3564    1.1789 hl      1  lig       0.079301
     38 H_11         28.2826   44.4545    3.3885 hm      1  lig       0.357532
     39 H_12         22.1353   39.1266    5.9026 hq      1  lig       0.112055
     40 H_13         22.2035   42.8271    2.7583 hr      1  lig       0.135994
     41 H_14         27.6036   43.8514    4.7631 ht      1  lig       0.357532
@<TRIPOS>BOND
     1     1     2    1
     2     1     6    1
     3     1    16    1
     4     2     3    1
     5     2    23    1
     6     2    24    1
     7     3     4    1
     8     3    25    1
     9     3    26    1
    10     4     5    1
    11     4    21    1
    12     4    22    1
    13     5     6    1
    14     5    27    1
    15     5    28    1
    16     6    29    1
    17     6    30    1
    18     7     8    2
    19     7    12    1
    20     7    13    1
    21     8     9    1
    22     8    20    1
    23     9    10    2
    24     9    19    1
    25    10    11    1
    26    10    31    1
    27    11    12    2
    28    11    32    1
    29    12    33    1
    30    13    14    2
    31    13    18    1
    32    14    15    1
    33    15    16    2
    34    15    40    1
    35    16    17    1
    36    17    18    2
    37    18    39    1
    38    21    34    1
    39    21    38    1
    40    21    41    1
    41    22    35    1
    42    22    36    1
    43    22    37    1
