@<TRIPOS>MOLECULE
lig
  46   48 0 0 0
SMALL
NO_CHARGES


@<TRIPOS>ATOM
      1 N_00         24.5722   41.4017    2.9497 n0      1  lig      -0.358439
      2 C_01         24.8073   42.5904    2.1071 c4      1  lig      -0.119757
      3 C_02         25.8882   43.4955    2.7352 c5      1  lig      -0.061813
      4 C_03         27.1844   42.7081    3.0173 c6      1  lig       0.386643
      5 C_04         26.8880   41.4066    3.7995 c7      1  lig      -0.045788
      6 C_05         25.7788   40.5760    3.1172 c8      1  lig      -0.108174
      7 C_06         19.6941   40.5278    5.5181 c9      1  lig       0.007140
      8 C_07         19.4037   40.8004    6.8683 cb      1  lig       0.085693
      9 C_08         18.1005   40.6055    7.3543 ci      1  lig      -0.010804
     10 C_09         17.1024   40.1270    6.5070 cj      1  lig      -0.071051
     11 C_0a         17.3911   39.8460    5.1764 ck      1  lig      -0.110390
     12 C_0b         18.6755   40.0507    4.6853 cm      1  lig      -0.244946
     13 C_0c         21.0420   40.7304    4.9310 cn      1  lig       0.298207
     14 N_0d         21.0963   41.7469    4.0374 ng      1  lig      -0.458696
     15 C_0e         22.2680   41.9826    3.4209 co      1  lig       0.026009
     16 C_0f         23.3992   41.2013    3.6601 cq      1  lig       0.165033
     17 N_0g         23.3400   40.1644    4.5484 nr      1  lig      -0.077153
     18 C_0h         22.1710   39.9440    5.2012 cr      1  lig       0.094416
     19 Cl0i         17.6893   40.9440    9.0001 a0      1  lig      -0.073163
     20 Cl0j         20.6364   41.3873    7.9395 a1      1  lig      -0.117027
     21 N_0k         22.1416   38.8888    6.1136 nw      1  lig      -0.393505
     22 N_0l         28.0989   43.5943    3.8660 nA      1  lig      -0.611888
     23 C_0m         27.9436   42.4192    1.7238 cs      1  lig      -0.160310
     24 H_0n         25.1346   42.2431    1.1260 h0      1  lig       0.129884
     25 H_0o         23.9305   43.1928    1.8932 h6      1  lig       0.129884
     26 H_0p         25.4822   43.9052    3.6621 h7      1  lig       0.038499
     27 H_0q         26.0760   44.3478    2.0795 h8      1  lig       0.038499
     28 H_0r         26.5544   41.6374    4.8131 h9      1  lig       0.020833
     29 H_0s         27.7851   40.7941    3.9052 hb      1  lig       0.020833
     30 H_0t         26.1033   40.2188    2.1391 hd      1  lig       0.109040
     31 H_0u         25.5804   39.6753    3.6998 he      1  lig       0.109040
     32 H_0v         16.1024   39.9768    6.8873 hf      1  lig       0.147252
     33 H_0w         16.6136   39.4779    4.5216 hg      1  lig       0.160744
     34 H_0x         18.8881   39.8422    3.6459 hh      1  lig       0.201542
     35 C_0y         23.3418   38.1054    6.3920 ct      1  lig      -0.094049
     36 H_0z         27.6398   43.8120    4.7398 hi      1  lig       0.362824
     37 H_10         28.8803   41.8906    1.9092 hj      1  lig       0.065663
     38 H_11         28.1848   43.3317    1.1760 hk      1  lig       0.065663
     39 H_12         27.3675   41.7927    1.0417 hl      1  lig       0.065663
     40 H_13         28.9634   43.1099    4.0623 hm      1  lig       0.362824
     41 H_14         22.2142   42.7915    2.7136 hq      1  lig       0.130020
     42 H_15         21.3339   38.7082    6.6920 hr      1  lig       0.307605
     43 H_16         23.1102   37.3347    7.1272 ht      1  lig       0.074892
     44 H_17         24.1199   38.7600    6.7847 hu      1  lig       0.074892
     45 H_18         23.6913   37.6368    5.4721 hv      1  lig       0.074892
     46 H_19         28.3039   44.4537    3.3768 hy      1  lig       0.362824
@<TRIPOS>BOND
     1     1     2    1
     2     1     6    1
     3     1    16    1
     4     2     3    1
     5     2    24    1
     6     2    25    1
     7     3     4    1
     8     3    26    1
     9     3    27    1
    10     4     5    1
    11     4    22    1
    12     4    23    1
    13     5     6    1
    14     5    28    1
    15     5    29    1
    16     6    30    1
    17     6    31    1
    18     7     8    2
    19     7    12    1
    20     7    13    1
    21     8     9    1
    22     8    20    1
    23     9    10    2
    24     9    19    1
    25    10    11    1
    26    10    32    1
    27    11    12    2
    28    11    33    1
    29    12    34    1
    30    13    14    2
    31    13    18    1
    32    14    15    1
    33    15    16    2
    34    15    41    1
    35    16    17    1
    36    17    18    2
    37    18    21    1
    38    21    35    1
    39    21    42    1
    40    22    36    1
    41    22    40    1
    42    22    46    1
    43    23    37    1
    44    23    38    1
    45    23    39    1
    46    35    43    1
    47    35    44    1
    48    35    45    1
