@<TRIPOS>MOLECULE
lig
  43   45 0 0 0
SMALL
NO_CHARGES


@<TRIPOS>ATOM
      1 N_00         24.6991   41.2880    3.1084 n0      1  lig      -0.424768
      2 C_01         24.7544   42.3659    2.0828 c4      1  lig      -0.032903
      3 C_02         26.0819   43.1849    2.0777 c5      1  lig       0.071584
      4 N_03         27.2540   42.3327    2.4127 ng      1  lig      -0.143937
      5 C_04         27.1216   41.4947    3.6356 c6      1  lig       0.095520
      6 C_05         25.9265   40.5256    3.4438 c7      1  lig      -0.048211
      7 C_06         19.7062   40.2071    5.4923 c8      1  lig      -0.053865
      8 C_07         19.4758   40.5221    6.8291 c9      1  lig      -0.030388
      9 C_08         18.1971   40.3798    7.3797 cb      1  lig      -0.036433
     10 C_09         17.1161   39.9866    6.5815 ci      1  lig      -0.044167
     11 C_0a         17.3356   39.6937    5.2208 cj      1  lig      -0.168633
     12 C_0b         18.6213   39.8380    4.6722 ck      1  lig      -0.141560
     13 C_0c         21.0642   40.4372    4.9252 cm      1  lig      -0.046445
     14 C_0d         21.1830   41.4378    3.9557 cn      1  lig       0.036004
     15 N_0e         22.3711   41.6614    3.3749 nr      1  lig      -0.502764
     16 C_0f         23.5007   40.9783    3.7010 co      1  lig       0.670675
     17 N_0g         23.3990   40.0008    4.6377 nw      1  lig      -0.532882
     18 C_0h         22.2307   39.6970    5.2474 cq      1  lig       0.487309
     19 Cl0i         17.9435   40.7315    9.0488 a0      1  lig      -0.091252
     20 N_0j         22.2237   38.6160    6.2287 nA      1  lig      -0.842689
     21 C_0k         26.2804   43.8709    0.7586 cr      1  lig      -0.210874
     22 C_0l         28.3857   40.7218    3.8695 cs      1  lig      -0.269534
     23 H_0m         23.9259   43.0694    2.1825 h0      1  lig       0.108333
     24 H_0n         24.6132   41.8868    1.1127 h6      1  lig       0.108333
     25 H_0o         26.0127   43.9717    2.8313 h7      1  lig       0.105576
     26 H_0p         28.0687   42.9223    2.5049 h8      1  lig       0.254480
     27 H_0q         26.9651   42.1292    4.5101 h9      1  lig       0.113552
     28 H_0r         25.8054   39.9380    4.3555 hb      1  lig       0.109722
     29 H_0s         26.1226   39.8073    2.6466 hd      1  lig       0.109722
     30 H_0t         20.2827   40.8574    7.4643 he      1  lig       0.102580
     31 H_0u         16.1290   39.8927    7.0109 hf      1  lig       0.144159
     32 H_0v         16.5100   39.3854    4.5956 hg      1  lig       0.164900
     33 H_0w         18.7705   39.6319    3.6214 hh      1  lig       0.148413
     34 H_0x         20.3445   42.0389    3.6351 hi      1  lig       0.162567
     35 H_0y         21.3657   38.3671    6.6998 hj      1  lig       0.401086
     36 H_0z         23.0769   38.1169    6.4362 hk      1  lig       0.401086
     37 H_10         25.4101   44.4881    0.5355 hl      1  lig       0.088096
     38 H_11         26.4059   43.1231   -0.0245 hm      1  lig       0.088096
     39 H_12         27.1694   44.4998    0.8062 hq      1  lig       0.088096
     40 H_13         28.2781   40.1120    4.7665 hr      1  lig       0.102312
     41 H_14         29.2168   41.4151    3.9991 ht      1  lig       0.102312
     42 H_15         28.5810   40.0767    3.0129 hu      1  lig       0.102312
     43 H_16         27.3962   41.7024    1.6368 hv      1  lig       0.254480
@<TRIPOS>BOND
     1     1     2    1
     2     1     6    1
     3     1    16    1
     4     2     3    1
     5     2    23    1
     6     2    24    1
     7     3     4    1
     8     3    21    1
     9     3    25    1
    10     4     5    1
    11     4    26    1
    12     4    43    1
    13     5     6    1
    14     5    22    1
    15     5    27    1
    16     6    28    1
    17     6    29    1
    18     7     8    2
    19     7    12    1
    20     7    13    1
    21     8     9    1
    22     8    30    1
    23     9    10    2
    24     9    19    1
    25    10    11    1
    26    10    31    1
    27    11    12    2
    28    11    32    1
    29    12    33    1
    30    13    14    2
    31    13    18    1
    32    14    15    1
    33    14    34    1
    34    15    16    2
    35    16    17    1
    36    17    18    2
    37    18    20    1
    38    20    35    1
    39    20    36    1
    40    21    37    1
    41    21    38    1
    42    21    39    1
    43    22    40    1
    44    22    41    1
    45    22    42    1
