@<TRIPOS>MOLECULE
lig
  43   45 0 0 0
SMALL
NO_CHARGES


@<TRIPOS>ATOM
      1 N_00         24.6991   41.2880    3.1084 n0      1  lig      -0.417833
      2 C_01         24.7544   42.3659    2.0828 c4      1  lig      -0.036449
      3 C_02         26.0819   43.1849    2.0777 c5      1  lig       0.070954
      4 N_03         27.2540   42.3327    2.4127 ng      1  lig      -0.153010
      5 C_04         27.1216   41.4947    3.6356 c6      1  lig       0.094240
      6 C_05         25.9265   40.5256    3.4438 c7      1  lig      -0.047774
      7 C_06         19.7062   40.2071    5.4923 c8      1  lig      -0.056008
      8 C_07         19.4758   40.5221    6.8291 c9      1  lig      -0.052631
      9 C_08         18.1971   40.3798    7.3797 cb      1  lig       0.021281
     10 C_09         17.1161   39.9866    6.5815 ci      1  lig       0.034274
     11 C_0a         17.3356   39.6937    5.2208 cj      1  lig      -0.077553
     12 C_0b         18.6213   39.8380    4.6722 ck      1  lig      -0.175791
     13 C_0c         21.0642   40.4372    4.9252 cm      1  lig      -0.041198
     14 C_0d         21.1830   41.4378    3.9557 cn      1  lig       0.031760
     15 N_0e         22.3711   41.6614    3.3749 nr      1  lig      -0.500413
     16 C_0f         23.5007   40.9783    3.7010 co      1  lig       0.669351
     17 N_0g         23.3990   40.0008    4.6377 nw      1  lig      -0.545940
     18 C_0h         22.2307   39.6970    5.2474 cq      1  lig       0.503536
     19 Cl0i         17.9740   40.7392    9.0549 a0      1  lig      -0.067034
     20 N_0j         22.2239   38.6159    6.2287 nA      1  lig      -0.835809
     21 C_0k         26.2809   43.8707    0.7586 cr      1  lig      -0.217584
     22 C_0l         28.3860   40.7221    3.8693 cs      1  lig      -0.277290
     23 Cl0m         15.5237   39.8315    7.2337 a1      1  lig      -0.061330
     24 H_0n         23.9259   43.0695    2.1822 h0      1  lig       0.109225
     25 H_0o         24.6135   41.8868    1.1127 h6      1  lig       0.109225
     26 H_0p         26.0130   43.9718    2.8311 h7      1  lig       0.107557
     27 H_0q         28.0677   42.9235    2.5068 h8      1  lig       0.257707
     28 H_0r         26.9651   42.1293    4.5101 h9      1  lig       0.116132
     29 H_0s         25.8056   39.9378    4.3555 hb      1  lig       0.111190
     30 H_0t         26.1227   39.8075    2.6465 hd      1  lig       0.111190
     31 H_0u         20.2825   40.8574    7.4646 he      1  lig       0.101608
     32 H_0v         16.5083   39.3864    4.5978 hf      1  lig       0.146509
     33 H_0w         18.7696   39.6318    3.6213 hg      1  lig       0.162059
     34 H_0x         20.3446   42.0389    3.6350 hh      1  lig       0.165530
     35 H_0y         21.3659   38.3670    6.6998 hi      1  lig       0.397447
     36 H_0z         23.0771   38.1169    6.4362 hj      1  lig       0.397447
     37 H_10         25.4108   44.4881    0.5352 hk      1  lig       0.090822
     38 H_11         26.4065   43.1229   -0.0244 hl      1  lig       0.090822
     39 H_12         27.1699   44.4995    0.8065 hm      1  lig       0.090822
     40 H_13         28.2786   40.1123    4.7662 hq      1  lig       0.105084
     41 H_14         29.2169   41.4157    3.9988 hr      1  lig       0.105084
     42 H_15         28.5813   40.0771    3.0126 ht      1  lig       0.105084
     43 H_16         27.3995   41.7038    1.6361 hu      1  lig       0.257707
@<TRIPOS>BOND
     1     1     2    1
     2     1     6    1
     3     1    16    1
     4     2     3    1
     5     2    24    1
     6     2    25    1
     7     3     4    1
     8     3    21    1
     9     3    26    1
    10     4     5    1
    11     4    27    1
    12     4    43    1
    13     5     6    1
    14     5    22    1
    15     5    28    1
    16     6    29    1
    17     6    30    1
    18     7     8    2
    19     7    12    1
    20     7    13    1
    21     8     9    1
    22     8    31    1
    23     9    10    2
    24     9    19    1
    25    10    11    1
    26    10    23    1
    27    11    12    2
    28    11    32    1
    29    12    33    1
    30    13    14    2
    31    13    18    1
    32    14    15    1
    33    14    34    1
    34    15    16    2
    35    16    17    1
    36    17    18    2
    37    18    20    1
    38    20    35    1
    39    20    36    1
    40    21    37    1
    41    21    38    1
    42    21    39    1
    43    22    40    1
    44    22    41    1
    45    22    42    1
