@<TRIPOS>MOLECULE
lig
  40   42 0 0 0
SMALL
NO_CHARGES


@<TRIPOS>ATOM
      1 N_00         24.5492   41.4103    2.9581 n0      1  lig      -0.417059
      2 C_01         24.8206   42.5674    2.0917 c4      1  lig      -0.007476
      3 C_02         25.9010   43.4845    2.7073 c5      1  lig      -0.099167
      4 C_03         27.2006   42.7197    3.0160 c6      1  lig       0.241896
      5 C_04         26.8994   41.4031    3.7428 c7      1  lig      -0.099768
      6 C_05         25.7707   40.5926    3.0746 c8      1  lig      -0.016140
      7 C_06         19.6801   40.5131    5.5639 c9      1  lig       0.009714
      8 C_07         19.3880   40.8059    6.9100 cb      1  lig       0.028802
      9 C_08         18.0896   40.6058    7.4051 ci      1  lig       0.001364
     10 C_09         17.0975   40.0865    6.5706 cj      1  lig      -0.047227
     11 C_0a         17.3885   39.7774    5.2446 ck      1  lig      -0.190420
     12 C_0b         18.6614   40.0160    4.7431 cm      1  lig      -0.134477
     13 C_0c         20.9975   40.7599    4.9628 cn      1  lig      -0.031040
     14 C_0d         21.1772   41.8132    4.0533 co      1  lig       0.017934
     15 N_0e         22.3346   42.0475    3.4126 ng      1  lig      -0.519780
     16 C_0f         23.3734   41.2177    3.6872 cq      1  lig       0.711698
     17 N_0g         23.3126   40.1834    4.5784 nr      1  lig      -0.523527
     18 C_0h         22.1341   39.9630    5.2013 cr      1  lig       0.468736
     19 Cl0i         17.6784   41.0592    9.0215 a0      1  lig      -0.066574
     20 Cl0j         20.6099   41.5010    7.9303 a1      1  lig      -0.094114
     21 N_0k         22.0817   38.8852    6.0763 nw      1  lig      -0.894078
     22 N_0l         28.0958   43.6100    3.9243 nA      1  lig      -0.654967
     23 H_0m         23.9362   43.1801    1.9134 h0      1  lig       0.086801
     24 H_0n         25.1411   42.2139    1.1097 h6      1  lig       0.086801
     25 H_0o         26.1018   44.3579    2.0849 h7      1  lig       0.060958
     26 H_0p         25.4758   43.9149    3.6140 h8      1  lig       0.060958
     27 H_0q         27.8085   40.8158    3.8859 h9      1  lig       0.065024
     28 H_0r         26.5566   41.6353    4.7463 hb      1  lig       0.065024
     29 H_0s         25.6109   39.6728    3.6282 hd      1  lig       0.084786
     30 H_0t         26.0829   40.2916    2.0753 he      1  lig       0.084786
     31 H_0u         16.0828   39.9773    6.9300 hf      1  lig       0.144277
     32 H_0v         16.6300   39.3918    4.5807 hg      1  lig       0.178601
     33 H_0w         18.8719   39.7811    3.7086 hh      1  lig       0.149630
     34 H_0x         28.2559   44.4914    3.4401 hi      1  lig       0.386285
     35 H_0y         27.6465   43.8153    4.7999 hj      1  lig       0.386285
     36 H_0z         22.9510   38.4014    6.2942 hk      1  lig       0.423496
     37 H_10         20.3640   42.4825    3.8394 hl      1  lig       0.164451
     38 H_11         27.6753   42.4671    2.0654 hm      1  lig       0.077726
     39 H_12         21.2504   38.7041    6.6087 hq      1  lig       0.423496
     40 H_13         28.9838   43.1729    4.1119 hr      1  lig       0.386285
@<TRIPOS>BOND
     1     1     2    1
     2     1     6    1
     3     1    16    1
     4     2     3    1
     5     2    23    1
     6     2    24    1
     7     3     4    1
     8     3    25    1
     9     3    26    1
    10     4     5    1
    11     4    22    1
    12     4    38    1
    13     5     6    1
    14     5    27    1
    15     5    28    1
    16     6    29    1
    17     6    30    1
    18     7     8    2
    19     7    12    1
    20     7    13    1
    21     8     9    1
    22     8    20    1
    23     9    10    2
    24     9    19    1
    25    10    11    1
    26    10    31    1
    27    11    12    2
    28    11    32    1
    29    12    33    1
    30    13    14    2
    31    13    18    1
    32    14    15    1
    33    14    37    1
    34    15    16    2
    35    16    17    1
    36    17    18    2
    37    18    21    1
    38    21    36    1
    39    21    39    1
    40    22    34    1
    41    22    35    1
    42    22    40    1
