@<TRIPOS>MOLECULE
lig
  46   48 0 0 0
SMALL
NO_CHARGES


@<TRIPOS>ATOM
      1 N_00         24.5492   41.4103    2.9581 n0      1  lig      -0.402766
      2 C_01         25.7707   40.5926    3.0746 c4      1  lig      -0.052087
      3 C_02         26.8994   41.4031    3.7428 c5      1  lig      -0.001016
      4 C_03         27.2006   42.7197    3.0160 c6      1  lig       0.010068
      5 C_04         25.9010   43.4845    2.7073 c7      1  lig       0.013664
      6 C_05         24.8206   42.5674    2.0917 c8      1  lig      -0.037926
      7 C_06         19.6801   40.5131    5.5639 c9      1  lig       0.006470
      8 C_07         19.3880   40.8059    6.9100 cb      1  lig       0.045892
      9 C_08         18.0896   40.6058    7.4051 ci      1  lig       0.004312
     10 C_09         17.0975   40.0865    6.5706 cj      1  lig      -0.060250
     11 C_0a         17.3885   39.7774    5.2446 ck      1  lig      -0.180874
     12 C_0b         18.6614   40.0160    4.7431 cm      1  lig      -0.143814
     13 C_0c         20.9975   40.7599    4.9628 cn      1  lig      -0.038102
     14 C_0d         21.1772   41.8132    4.0533 co      1  lig       0.008851
     15 N_0e         22.3346   42.0475    3.4126 ng      1  lig      -0.504168
     16 C_0f         23.3734   41.2177    3.6872 cq      1  lig       0.693370
     17 N_0g         23.3126   40.1834    4.5784 nr      1  lig      -0.524732
     18 C_0h         22.1341   39.9630    5.2013 cr      1  lig       0.489566
     19 Cl0i         17.6784   41.0592    9.0215 a0      1  lig      -0.069561
     20 Cl0j         20.6099   41.5010    7.9303 a1      1  lig      -0.101497
     21 N_0k         22.0817   38.8852    6.0763 nw      1  lig      -0.927408
     22 N_0l         28.0958   43.6100    3.9243 nA      1  lig      -0.090651
     23 H_0m         25.5732   39.6852    3.6479 h0      1  lig       0.092400
     24 H_0n         26.0720   40.2556    2.0817 h6      1  lig       0.092400
     25 H_0o         27.7967   40.7849    3.8035 h7      1  lig       0.038121
     26 H_0p         26.5952   41.6002    4.7727 h8      1  lig       0.038121
     27 H_0q         26.0952   44.3191    2.0316 h9      1  lig       0.025719
     28 H_0r         25.4862   43.9170    3.6198 hb      1  lig       0.025719
     29 H_0s         23.9138   43.1446    1.9056 hd      1  lig       0.091429
     30 H_0t         25.1390   42.2068    1.1124 he      1  lig       0.091429
     31 H_0u         16.0996   39.9345    6.9555 hf      1  lig       0.146780
     32 H_0v         16.6171   39.3786    4.6007 hg      1  lig       0.176750
     33 H_0w         18.8616   39.7878    3.7051 hh      1  lig       0.151668
     34 C_0x         29.3435   42.9152    4.2277 cs      1  lig      -0.230044
     35 C_0y         28.4040   44.8645    3.2441 ct      1  lig      -0.241609
     36 H_0z         22.9055   38.3365    6.2631 hi      1  lig       0.432121
     37 H_10         20.3577   42.4731    3.8087 hj      1  lig       0.165565
     38 H_11         27.7216   42.5033    2.0813 hk      1  lig       0.115575
     39 H_12         29.8720   42.6956    3.3001 hl      1  lig       0.144000
     40 H_13         29.1231   41.9839    4.7495 hm      1  lig       0.144000
     41 H_14         29.9668   43.5472    4.8602 hq      1  lig       0.144000
     42 H_15         28.9282   44.6532    2.3120 hr      1  lig       0.148574
     43 H_16         29.0359   45.4796    3.8848 ht      1  lig       0.148574
     44 H_17         27.4782   45.3974    3.0274 hu      1  lig       0.148574
     45 H_18         27.6101   43.8110    4.7875 hv      1  lig       0.340672
     46 H_19         21.2604   38.6952    6.6292 hy      1  lig       0.432121
@<TRIPOS>BOND
     1     1     2    1
     2     1     6    1
     3     1    16    1
     4     2     3    1
     5     2    23    1
     6     2    24    1
     7     3     4    1
     8     3    25    1
     9     3    26    1
    10     4     5    1
    11     4    22    1
    12     4    38    1
    13     5     6    1
    14     5    27    1
    15     5    28    1
    16     6    29    1
    17     6    30    1
    18     7     8    2
    19     7    12    1
    20     7    13    1
    21     8     9    1
    22     8    20    1
    23     9    10    2
    24     9    19    1
    25    10    11    1
    26    10    31    1
    27    11    12    2
    28    11    32    1
    29    12    33    1
    30    13    14    2
    31    13    18    1
    32    14    15    1
    33    14    37    1
    34    15    16    2
    35    16    17    1
    36    17    18    2
    37    18    21    1
    38    21    36    1
    39    21    46    1
    40    22    34    1
    41    22    35    1
    42    22    45    1
    43    34    39    1
    44    34    40    1
    45    34    41    1
    46    35    42    1
    47    35    43    1
    48    35    44    1
