@<TRIPOS>MOLECULE
lig
  40   42 0 0 0
SMALL
NO_CHARGES


@<TRIPOS>ATOM
      1 C_00         19.8865   40.6092    5.5884 c4      1  lig       0.036660
      2 C_01         19.6598   40.8590    6.9585 c5      1  lig       0.086872
      3 C_02         18.4229   40.5299    7.5368 c6      1  lig      -0.016197
      4 C_03         17.4200   39.9555    6.7590 c7      1  lig      -0.066838
      5 C_04         17.6448   39.6901    5.4111 c8      1  lig      -0.124164
      6 C_05         18.8649   40.0233    4.8318 c9      1  lig      -0.223905
      7 C_06         21.1867   40.8944    4.9175 cb      1  lig       0.255694
      8 N_07         21.1752   41.8933    3.9934 n0      1  lig      -0.430749
      9 C_08         22.3245   42.1535    3.3206 ci      1  lig       0.088666
     10 C_09         23.4937   41.4209    3.5525 cj      1  lig       0.140350
     11 N_0a         23.5034   40.4202    4.4740 ng      1  lig      -0.145877
     12 C_0b         22.3592   40.1611    5.1522 ck      1  lig       0.278615
     13 Cl0c         18.0969   40.8222    9.2115 a0      1  lig      -0.060091
     14 Cl0d         20.8776   41.6192    7.9339 a1      1  lig      -0.109156
     15 N_0e         22.3961   39.1265    6.0772 nr      1  lig      -1.001212
     16 N_0f         24.7011   41.7162    2.9087 nw      1  lig      -0.358941
     17 C_0g         25.9868   41.0513    3.1197 cm      1  lig      -0.015488
     18 C_0h         27.0755   41.9343    2.4916 cn      1  lig       0.014355
     19 C_0i         26.3258   42.4811    1.2882 co      1  lig       0.004554
     20 C_0j         24.8897   42.6468    1.7944 cq      1  lig       0.038452
     21 C_0k         27.6156   43.0653    3.4038 cr      1  lig      -0.047481
     22 N_0l         28.0786   42.5076    4.7524 nA      1  lig      -0.093958
     23 H_0m         16.4712   39.6950    7.2057 h0      1  lig       0.151928
     24 H_0n         16.8784   39.2211    4.8120 h6      1  lig       0.168396
     25 H_0o         19.0255   39.7992    3.7864 h7      1  lig       0.187857
     26 H_0p         22.2991   42.9651    2.6087 h8      1  lig       0.121271
     27 H_0q         23.2561   38.6114    6.2391 h9      1  lig       0.423352
     28 H_0r         21.5551   38.8901    6.5802 hb      1  lig       0.423352
     29 H_0s         26.1639   40.8905    4.1833 hd      1  lig       0.071374
     30 H_0t         25.9729   40.0534    2.6763 he      1  lig       0.071374
     31 H_0u         27.9165   41.3129    2.1734 hf      1  lig       0.050401
     32 H_0v         26.7503   43.4162    0.9197 hg      1  lig       0.042472
     33 H_0w         26.3508   41.7778    0.4544 hh      1  lig       0.042472
     34 H_0x         24.2023   42.3874    0.9869 hi      1  lig       0.072036
     35 H_0y         24.7023   43.6767    2.0993 hj      1  lig       0.072036
     36 H_0z         28.5093   43.5362    2.9910 hk      1  lig       0.091325
     37 H_10         26.8805   43.8348    3.6483 hl      1  lig       0.091325
     38 H_11         28.5580   43.2205    5.2998 hm      1  lig       0.222956
     39 H_12         27.2981   42.1725    5.3061 hq      1  lig       0.222956
     40 H_13         28.7303   41.7510    4.6055 hr      1  lig       0.222956
@<TRIPOS>BOND
     1     1     2    2
     2     1     6    1
     3     1     7    1
     4     2     3    1
     5     2    14    1
     6     3     4    2
     7     3    13    1
     8     4     5    1
     9     4    23    1
    10     5     6    2
    11     5    24    1
    12     6    25    1
    13     7     8    2
    14     7    12    1
    15     8     9    1
    16     9    10    2
    17     9    26    1
    18    10    11    1
    19    10    16    1
    20    11    12    2
    21    12    15    1
    22    15    27    1
    23    15    28    1
    24    16    17    1
    25    16    20    1
    26    17    18    1
    27    17    29    1
    28    17    30    1
    29    18    19    1
    30    18    21    1
    31    18    31    1
    32    19    20    1
    33    19    32    1
    34    19    33    1
    35    20    34    1
    36    20    35    1
    37    21    22    1
    38    21    36    1
    39    21    37    1
    40    22    38    1
    41    22    39    1
    42    22    40    1
