@<TRIPOS>MOLECULE
lig
  43   45 0 0 0
SMALL
NO_CHARGES


@<TRIPOS>ATOM
      1 N_00         24.6991   41.2880    3.1084 n0      1  lig      -0.397148
      2 C_01         24.7544   42.3659    2.0828 c4      1  lig      -0.003700
      3 C_02         26.0819   43.1849    2.0777 c5      1  lig       0.095178
      4 N_03         27.2540   42.3327    2.4127 ng      1  lig      -0.241327
      5 C_04         27.1216   41.4947    3.6356 c6      1  lig       0.066537
      6 C_05         25.9265   40.5256    3.4438 c7      1  lig       0.020378
      7 C_06         19.7062   40.2071    5.4923 c8      1  lig       0.031432
      8 C_07         19.4758   40.5221    6.8291 c9      1  lig       0.064922
      9 C_08         18.1971   40.3798    7.3797 cb      1  lig      -0.008971
     10 C_09         17.1161   39.9866    6.5815 ci      1  lig      -0.061457
     11 C_0a         17.3356   39.6937    5.2208 cj      1  lig      -0.138666
     12 C_0b         18.6213   39.8380    4.6722 ck      1  lig      -0.218223
     13 C_0c         21.0642   40.4372    4.9252 cm      1  lig       0.286106
     14 N_0d         21.1830   41.4378    3.9557 nr      1  lig      -0.459058
     15 C_0e         22.3711   41.6614    3.3749 cn      1  lig       0.030440
     16 C_0f         23.5007   40.9783    3.7010 co      1  lig       0.269853
     17 N_0g         23.3990   40.0008    4.6377 nw      1  lig      -0.371609
     18 C_0h         22.2307   39.6970    5.2474 cq      1  lig       0.384890
     19 Cl0i         17.9052   40.7222    9.0484 a0      1  lig      -0.068071
     20 Cl0j         20.7750   41.0744    7.8377 a1      1  lig      -0.097459
     21 N_0k         22.2224   38.6180    6.2309 nA      1  lig      -0.882607
     22 C_0l         26.2822   43.8711    0.7590 cr      1  lig      -0.163496
     23 C_0m         28.3855   40.7216    3.8701 cs      1  lig      -0.153672
     24 H_0n         23.9975   43.1381    2.1866 h0      1  lig       0.092216
     25 H_0o         24.5965   41.9041    1.1061 h6      1  lig       0.092216
     26 H_0p         26.0162   43.9712    2.8322 h7      1  lig       0.116445
     27 H_0q         28.0700   42.9204    2.5053 h8      1  lig       0.277515
     28 H_0r         26.9639   42.1287    4.5102 h9      1  lig       0.121748
     29 H_0s         25.8110   39.9363    4.3552 hb      1  lig       0.089230
     30 H_0t         26.1261   39.8086    2.6459 hd      1  lig       0.089230
     31 H_0u         16.1286   39.8947    7.0105 he      1  lig       0.145208
     32 H_0v         16.5088   39.3908    4.5936 hf      1  lig       0.166692
     33 H_0w         18.7827   39.6501    3.6201 hg      1  lig       0.185524
     34 H_0x         21.3638   38.3701    6.7014 hh      1  lig       0.398761
     35 H_0y         23.0753   38.1193    6.4406 hi      1  lig       0.398761
     36 H_0z         25.4124   44.4886    0.5350 hj      1  lig       0.076852
     37 H_10         26.4084   43.1235   -0.0241 hk      1  lig       0.076852
     38 H_11         27.1712   44.4998    0.8079 hl      1  lig       0.076852
     39 H_12         28.2774   40.1120    4.7672 hm      1  lig       0.076037
     40 H_13         29.2166   41.4148    3.9999 hq      1  lig       0.076037
     41 H_14         28.5810   40.0763    3.0137 hr      1  lig       0.076037
     42 H_15         27.3953   41.6996    1.6390 ht      1  lig       0.277515
     43 H_16         22.2830   42.4182    2.6166 hu      1  lig       0.106000
@<TRIPOS>BOND
     1     1     2    1
     2     1     6    1
     3     1    16    1
     4     2     3    1
     5     2    24    1
     6     2    25    1
     7     3     4    1
     8     3    22    1
     9     3    26    1
    10     4     5    1
    11     4    27    1
    12     4    42    1
    13     5     6    1
    14     5    23    1
    15     5    28    1
    16     6    29    1
    17     6    30    1
    18     7     8    2
    19     7    12    1
    20     7    13    1
    21     8     9    1
    22     8    20    1
    23     9    10    2
    24     9    19    1
    25    10    11    1
    26    10    31    1
    27    11    12    2
    28    11    32    1
    29    12    33    1
    30    13    14    2
    31    13    18    1
    32    14    15    1
    33    15    16    2
    34    15    43    1
    35    16    17    1
    36    17    18    2
    37    18    21    1
    38    21    34    1
    39    21    35    1
    40    22    36    1
    41    22    37    1
    42    22    38    1
    43    23    39    1
    44    23    40    1
    45    23    41    1
