@<TRIPOS>MOLECULE
lig
  43   45 0 0 0
SMALL
NO_CHARGES


@<TRIPOS>ATOM
      1 N_00         24.5404   41.5885    3.3090 n0      1  lig      -0.450022
      2 C_01         24.8982   42.8207    2.6006 c4      1  lig      -0.095543
      3 C_02         26.2819   43.3367    3.0100 c5      1  lig      -0.038969
      4 C_03         27.3971   42.2987    2.8091 c6      1  lig       0.324483
      5 C_04         26.9514   40.9750    3.4735 c7      1  lig      -0.039521
      6 C_05         25.5365   40.5417    3.0039 c8      1  lig      -0.102380
      7 C_06         19.5908   40.5482    5.7796 c9      1  lig       0.053657
      8 C_07         19.3934   40.8482    7.1425 cb      1  lig       0.058314
      9 C_08         18.1521   40.5813    7.7423 ci      1  lig      -0.001729
     10 C_09         17.1217   40.0191    6.9875 cj      1  lig      -0.061724
     11 C_0a         17.3078   39.7413    5.6358 ck      1  lig      -0.141635
     12 C_0b         18.5344   40.0192    5.0382 cm      1  lig      -0.209888
     13 C_0c         20.9028   40.7687    5.1073 cn      1  lig       0.310814
     14 N_0d         20.9078   41.7188    4.1417 ng      1  lig      -0.448197
     15 C_0e         22.0632   41.9854    3.4794 co      1  lig       0.139579
     16 C_0f         23.2624   41.3076    3.8120 cq      1  lig       0.381867
     17 N_0g         23.2282   40.3206    4.7525 nr      1  lig      -0.216418
     18 C_0h         22.0678   40.0524    5.3940 cr      1  lig       0.195860
     19 Cl0i         17.8605   40.9445    9.4073 a0      1  lig      -0.067959
     20 Cl0j         20.6492   41.6069    8.0667 a1      1  lig      -0.116592
     21 N_0k         22.0799   39.0352    6.3399 nw      1  lig      -0.826803
     22 N_0l         28.6403   42.8202    3.5448 nA      1  lig      -0.630204
     23 C_0m         27.7928   42.1290    1.3299 cs      1  lig      -0.163378
     24 H_0n         24.8178   42.6857    1.5203 h0      1  lig       0.122592
     25 H_0o         24.2286   43.6152    2.9029 h6      1  lig       0.122592
     26 H_0p         26.2161   43.6207    4.0603 h7      1  lig       0.042369
     27 H_0q         26.4810   44.2580    2.4609 h8      1  lig       0.042369
     28 H_0r         26.9134   41.0715    4.5641 h9      1  lig       0.024347
     29 H_0s         27.6822   40.1891    3.2852 hb      1  lig       0.024347
     30 H_0t         25.5245   40.3383    1.9332 hd      1  lig       0.124841
     31 H_0u         25.2946   39.5971    3.4899 he      1  lig       0.124841
     32 H_0v         16.1718   39.8031    7.4535 hf      1  lig       0.146373
     33 H_0w         18.6691   39.7720    3.9920 hg      1  lig       0.192698
     34 Cl0x         21.9002   43.1348    2.1934 a2      1  lig      -0.086440
     35 H_0y         21.2246   38.7897    6.8170 hh      1  lig       0.385087
     36 H_0z         22.9415   38.5372    6.5292 hi      1  lig       0.385087
     37 H_10         29.4267   42.2097    3.3639 hj      1  lig       0.370774
     38 H_11         26.9724   41.7611    0.7163 hk      1  lig       0.071190
     39 H_12         28.6122   41.4170    1.2248 hl      1  lig       0.071190
     40 H_13         28.1175   43.0722    0.8894 hm      1  lig       0.071190
     41 H_14         28.8625   43.7498    3.2184 hq      1  lig       0.370774
     42 H_15         16.5085   39.3000    5.0566 hr      1  lig       0.169393
     43 H_16         28.4824   42.8752    4.5419 ht      1  lig       0.370774
@<TRIPOS>BOND
     1     1     2    1
     2     1     6    1
     3     1    16    1
     4     2     3    1
     5     2    24    1
     6     2    25    1
     7     3     4    1
     8     3    26    1
     9     3    27    1
    10     4     5    1
    11     4    22    1
    12     4    23    1
    13     5     6    1
    14     5    28    1
    15     5    29    1
    16     6    30    1
    17     6    31    1
    18     7     8    2
    19     7    12    1
    20     7    13    1
    21     8     9    1
    22     8    20    1
    23     9    10    2
    24     9    19    1
    25    10    11    1
    26    10    32    1
    27    11    12    2
    28    11    42    1
    29    12    33    1
    30    13    14    2
    31    13    18    1
    32    14    15    1
    33    15    16    2
    34    15    34    1
    35    16    17    1
    36    17    18    2
    37    18    21    1
    38    21    35    1
    39    21    36    1
    40    22    37    1
    41    22    41    1
    42    22    43    1
    43    23    38    1
    44    23    39    1
    45    23    40    1
