@<TRIPOS>MOLECULE
lig
  43   45 0 0 0
SMALL
NO_CHARGES


@<TRIPOS>ATOM
      1 N_00         24.5492   41.4103    2.9581 n0      1  lig      -0.420503
      2 C_01         24.8206   42.5674    2.0917 c4      1  lig      -0.039086
      3 C_02         25.9010   43.4845    2.7073 c5      1  lig      -0.019891
      4 C_03         27.2006   42.7197    3.0160 c6      1  lig       0.353890
      5 C_04         26.8994   41.4031    3.7428 c7      1  lig      -0.042167
      6 C_05         25.7707   40.5926    3.0746 c8      1  lig      -0.048719
      7 C_06         19.6801   40.5131    5.5639 c9      1  lig       0.008039
      8 C_07         19.3880   40.8059    6.9100 cb      1  lig       0.030296
      9 C_08         18.0896   40.6058    7.4051 ci      1  lig       0.002031
     10 C_09         17.0975   40.0865    6.5706 cj      1  lig      -0.048101
     11 C_0a         17.3885   39.7774    5.2446 ck      1  lig      -0.190288
     12 C_0b         18.6614   40.0160    4.7431 cm      1  lig      -0.133475
     13 C_0c         20.9975   40.7599    4.9628 cn      1  lig      -0.025787
     14 C_0d         21.1772   41.8132    4.0533 co      1  lig       0.011661
     15 N_0e         22.3346   42.0475    3.4126 ng      1  lig      -0.504389
     16 C_0f         23.3734   41.2177    3.6872 cq      1  lig       0.698305
     17 N_0g         23.3126   40.1834    4.5784 nr      1  lig      -0.504357
     18 C_0h         22.1341   39.9630    5.2013 cr      1  lig       0.452716
     19 Cl0i         17.6784   41.0592    9.0215 a0      1  lig      -0.067259
     20 Cl0j         20.6099   41.5010    7.9303 a1      1  lig      -0.094649
     21 N_0k         22.0817   38.8852    6.0763 nw      1  lig      -0.907456
     22 N_0l         28.0958   43.6100    3.9243 nA      1  lig      -0.611786
     23 C_0m         27.9161   42.4225    1.7316 cs      1  lig      -0.245742
     24 H_0n         25.1389   42.2068    1.1124 h0      1  lig       0.093659
     25 H_0o         23.9138   43.1447    1.9057 h6      1  lig       0.093659
     26 H_0p         25.4862   43.9168    3.6199 h7      1  lig       0.026911
     27 H_0q         26.0951   44.3193    2.0317 h8      1  lig       0.026911
     28 H_0r         26.5951   41.6002    4.7727 h9      1  lig       0.038215
     29 H_0s         27.7967   40.7849    3.8035 hb      1  lig       0.038215
     30 H_0t         26.0720   40.2559    2.0816 hd      1  lig       0.093295
     31 H_0u         25.5735   39.6851    3.6478 he      1  lig       0.093295
     32 H_0v         16.0997   39.9343    6.9555 hf      1  lig       0.144526
     33 H_0w         16.6171   39.3789    4.6006 hg      1  lig       0.178438
     34 H_0x         18.8614   39.7882    3.7050 hh      1  lig       0.149241
     35 H_0y         28.3051   44.4803    3.4555 hi      1  lig       0.362283
     36 H_0z         27.2841   41.7985    1.0996 hj      1  lig       0.087228
     37 H_10         28.8462   41.8967    1.9471 hk      1  lig       0.087228
     38 H_11         28.1378   43.3561    1.2147 hl      1  lig       0.087228
     39 H_12         27.6121   43.8070    4.7896 hm      1  lig       0.362283
     40 H_13         21.2610   38.6962    6.6303 hq      1  lig       0.428953
     41 H_14         20.3576   42.4728    3.8082 hr      1  lig       0.163913
     42 H_15         22.9058   38.3372    6.2641 ht      1  lig       0.428953
     43 H_16         28.9615   43.1311    4.1303 hu      1  lig       0.362283
@<TRIPOS>BOND
     1     1     2    1
     2     1     6    1
     3     1    16    1
     4     2     3    1
     5     2    24    1
     6     2    25    1
     7     3     4    1
     8     3    26    1
     9     3    27    1
    10     4     5    1
    11     4    22    1
    12     4    23    1
    13     5     6    1
    14     5    28    1
    15     5    29    1
    16     6    30    1
    17     6    31    1
    18     7     8    2
    19     7    12    1
    20     7    13    1
    21     8     9    1
    22     8    20    1
    23     9    10    2
    24     9    19    1
    25    10    11    1
    26    10    32    1
    27    11    12    2
    28    11    33    1
    29    12    34    1
    30    13    14    2
    31    13    18    1
    32    14    15    1
    33    14    41    1
    34    15    16    2
    35    16    17    1
    36    17    18    2
    37    18    21    1
    38    21    40    1
    39    21    42    1
    40    22    35    1
    41    22    39    1
    42    22    43    1
    43    23    36    1
    44    23    37    1
    45    23    38    1
