@<TRIPOS>MOLECULE
lig
  47   50 0 0 0
SMALL
NO_CHARGES


@<TRIPOS>ATOM
      1 N_00         24.5514   41.4004    2.9329 n0      1  lig      -0.391162
      2 C_01         24.8291   42.5878    2.0978 c4      1  lig      -0.089134
      3 C_02         25.9013   43.4869    2.7358 c5      1  lig      -0.065020
      4 C_03         27.2025   42.7130    3.0211 c6      1  lig       0.419404
      5 C_04         26.8895   41.4079    3.7802 c7      1  lig      -0.031641
      6 C_05         25.7697   40.5859    3.1067 c8      1  lig      -0.051767
      7 C_06         19.6794   40.5104    5.5019 c9      1  lig      -0.121686
      8 C_07         18.6195   40.0391    4.7203 cb      1  lig       0.088626
      9 C_08         17.3223   39.7888    5.2688 ci      1  lig       0.174339
     10 C_09         17.0983   40.0475    6.6166 cj      1  lig      -0.178109
     11 C_0a         18.1375   40.5477    7.3749 ck      1  lig      -0.249283
     12 C_0b         19.4091   40.7389    6.8493 cm      1  lig      -0.126233
     13 C_0c         21.0201   40.7305    4.9348 cn      1  lig       0.239416
     14 N_0d         21.0640   41.7682    4.0714 ng      1  lig      -0.374573
     15 C_0e         22.2386   42.0088    3.4485 co      1  lig      -0.084449
     16 C_0f         23.3718   41.2305    3.6715 cq      1  lig       0.301867
     17 N_0g         23.3249   40.1985    4.5693 nr      1  lig      -0.282593
     18 C_0h         22.1491   39.9575    5.2053 cr      1  lig       0.365053
     19 N_0i         22.1311   38.8990    6.1150 nw      1  lig      -0.869979
     20 N_0j         28.0744   43.6010    3.9172 nA      1  lig      -0.585807
     21 C_0k         27.9821   42.4323    1.7232 cs      1  lig      -0.224771
     22 C_0l         16.5080   39.3055    4.2140 ct      1  lig      -0.373602
     23 C_0m         17.2883   39.3122    3.1020 cw      1  lig      -0.094745
     24 N_0n         18.5615   39.7270    3.3961 nB      1  lig      -0.308935
     25 H_0o         25.1019   42.2746    1.0887 h0      1  lig       0.115038
     26 H_0p         23.9645   43.2246    1.9476 h6      1  lig       0.115038
     27 H_0q         25.4768   43.9409    3.6329 h7      1  lig       0.041608
     28 H_0r         26.0940   44.3339    2.0744 h8      1  lig       0.041607
     29 H_0s         26.5661   41.6170    4.7921 h9      1  lig       0.016972
     30 H_0t         27.7871   40.7997    3.8883 hb      1  lig       0.016972
     31 H_0u         26.1030   40.2012    2.1409 hd      1  lig       0.095884
     32 H_0v         25.5830   39.6922    3.7042 he      1  lig       0.095884
     33 H_0w         16.1261   39.8633    7.0481 hf      1  lig       0.167314
     34 H_0x         17.9366   40.7977    8.3897 hg      1  lig       0.164415
     35 H_0y         20.2028   41.0754    7.4958 hh      1  lig       0.129266
     36 H_0z         22.1832   42.8209    2.7432 hi      1  lig       0.144997
     37 H_10         21.2808   38.6923    6.6167 hj      1  lig       0.383500
     38 H_11         22.9874   38.3835    6.2927 hk      1  lig       0.383500
     39 H_12         28.9438   43.1329    4.1367 hl      1  lig       0.351477
     40 H_13         28.2765   44.4608    3.4084 hm      1  lig       0.351477
     41 H_14         27.4273   41.7698    1.0576 hq      1  lig       0.077347
     42 H_15         28.9404   41.9534    1.9312 hr      1  lig       0.077347
     43 H_16         28.1739   43.3532    1.1710 ht      1  lig       0.077347
     44 H_17         15.4567   39.0511    4.2584 hu      1  lig       0.200224
     45 H_18         17.0853   39.1306    2.0660 hv      1  lig       0.194608
     46 H_19         19.2785   39.8207    2.6938 hy      1  lig       0.321485
     47 H_1a         27.6026   43.8497    4.7761 hz      1  lig       0.351477
@<TRIPOS>BOND
     1     1     2    1
     2     1     6    1
     3     1    16    1
     4     2     3    1
     5     2    25    1
     6     2    26    1
     7     3     4    1
     8     3    27    1
     9     3    28    1
    10     4     5    1
    11     4    20    1
    12     4    21    1
    13     5     6    1
    14     5    29    1
    15     5    30    1
    16     6    31    1
    17     6    32    1
    18     7     8    2
    19     7    12    1
    20     7    13    1
    21     8     9    1
    22     8    24    1
    23     9    10    2
    24     9    22    1
    25    10    11    1
    26    10    33    1
    27    11    12    2
    28    11    34    1
    29    12    35    1
    30    13    14    2
    31    13    18    1
    32    14    15    1
    33    15    16    2
    34    15    36    1
    35    16    17    1
    36    17    18    2
    37    18    19    1
    38    19    37    1
    39    19    38    1
    40    20    39    1
    41    20    40    1
    42    20    47    1
    43    21    41    1
    44    21    42    1
    45    21    43    1
    46    22    23    2
    47    22    44    1
    48    23    24    1
    49    23    45    1
    50    24    46    1
