@<TRIPOS>MOLECULE
lig
  44   46 0 0 0
SMALL
NO_CHARGES


@<TRIPOS>ATOM
      1 N_00         24.7929   41.5142    3.1477 n0      1  lig      -0.343334
      2 C_01         25.8344   40.4760    3.0612 c4      1  lig      -0.081524
      3 C_02         27.1748   40.9732    3.6511 c5      1  lig      -0.035932
      4 C_03         27.7037   42.2764    2.9922 c6      1  lig       0.374772
      5 C_04         26.5450   43.2287    2.5702 c7      1  lig      -0.056138
      6 C_05         25.1808   42.5876    2.2240 c8      1  lig      -0.084927
      7 C_06         19.8262   40.5700    5.6738 c9      1  lig       0.052577
      8 C_07         19.5917   40.8481    7.0366 cb      1  lig       0.058813
      9 C_08         18.3265   40.5734    7.5966 ci      1  lig      -0.008060
     10 C_09         17.3166   40.0191    6.8151 cj      1  lig      -0.063106
     11 C_0a         17.5480   39.7348    5.4706 ck      1  lig      -0.130516
     12 C_0b         18.7902   40.0223    4.9119 cm      1  lig      -0.219089
     13 C_0c         21.1469   40.7953    5.0104 cn      1  lig       0.204229
     14 N_0d         21.1477   41.7025    4.0132 ng      1  lig      -0.392631
     15 C_0e         22.2993   41.9387    3.3328 co      1  lig       0.126753
     16 C_0f         23.5053   41.2696    3.6590 cq      1  lig       0.264416
     17 N_0g         23.4706   40.3379    4.6584 nr      1  lig      -0.272815
     18 C_0h         22.3243   40.0948    5.3241 cr      1  lig       0.349086
     19 Cl0i         17.9779   40.9265    9.2500 a0      1  lig      -0.062463
     20 Cl0j         20.8097   41.6023    8.0169 a1      1  lig      -0.109880
     21 N_0k         22.3429   39.1348    6.3276 nw      1  lig      -0.838024
     22 C_0l         28.3987   41.8105    1.6993 cs      1  lig      -0.176403
     23 N_0m         28.7321   42.9896    3.7652 nA      1  lig      -0.653267
     24 C_0n         22.0782   42.8210    2.2061 ct      1  lig       0.293809
     25 N_0o         21.8991   43.5262    1.2952 nB      1  lig      -0.428390
     26 H_0p         25.5368   39.5615    3.5507 h0      1  lig       0.107352
     27 H_0q         25.9715   40.1872    2.0179 h6      1  lig       0.107352
     28 H_0r         27.8971   40.1658    3.5581 h7      1  lig       0.023001
     29 H_0s         27.0447   41.1141    4.7328 h8      1  lig       0.023001
     30 H_0t         26.8505   43.8540    1.7352 h9      1  lig       0.043959
     31 H_0u         26.3764   43.9599    3.3678 hb      1  lig       0.043959
     32 H_0v         24.4947   43.4179    2.3116 hd      1  lig       0.120673
     33 H_0w         25.1317   42.2639    1.1822 he      1  lig       0.120673
     34 H_0x         16.3537   39.7954    7.2470 hf      1  lig       0.148774
     35 H_0y         16.7707   39.2857    4.8626 hg      1  lig       0.169183
     36 H_0z         18.9498   39.7782    3.8664 hh      1  lig       0.195978
     37 H_10         21.4774   38.9007    6.7877 hi      1  lig       0.396766
     38 H_11         23.1967   38.6071    6.5093 hj      1  lig       0.396766
     39 H_12         28.8686   42.5474    1.0313 hk      1  lig       0.070337
     40 H_13         27.7017   41.2032    1.1219 hl      1  lig       0.070337
     41 H_14         29.1298   41.0412    1.9479 hm      1  lig       0.070337
     42 H_15         29.0157   43.8194    3.2640 hq      1  lig       0.374532
     43 H_16         28.3558   43.2524    4.6649 hr      1  lig       0.374532
     44 H_17         29.5317   42.3870    3.8979 ht      1  lig       0.374532
@<TRIPOS>BOND
     1     1     2    1
     2     1     6    1
     3     1    16    1
     4     2     3    1
     5     2    26    1
     6     2    27    1
     7     3     4    1
     8     3    28    1
     9     3    29    1
    10     4     5    1
    11     4    22    1
    12     4    23    1
    13     5     6    1
    14     5    30    1
    15     5    31    1
    16     6    32    1
    17     6    33    1
    18     7     8    2
    19     7    12    1
    20     7    13    1
    21     8     9    1
    22     8    20    1
    23     9    10    2
    24     9    19    1
    25    10    11    1
    26    10    34    1
    27    11    12    2
    28    11    35    1
    29    12    36    1
    30    13    14    2
    31    13    18    1
    32    14    15    1
    33    15    16    2
    34    15    24    1
    35    16    17    1
    36    17    18    2
    37    18    21    1
    38    21    37    1
    39    21    38    1
    40    22    39    1
    41    22    40    1
    42    22    41    1
    43    23    42    1
    44    23    43    1
    45    23    44    1
    46    24    25    3
