@<TRIPOS>MOLECULE
lig
  46   48 0 0 0
SMALL
NO_CHARGES


@<TRIPOS>ATOM
      1 N_00         24.5594   41.3986    2.9317 n0      1  lig      -0.358867
      2 C_01         25.7611   40.5558    3.0894 c4      1  lig      -0.060993
      3 C_02         26.8712   41.3609    3.7612 c5      1  lig       0.061263
      4 C_03         27.2234   42.6835    3.0209 c6      1  lig       0.144275
      5 C_04         25.8987   43.4737    2.7315 c7      1  lig       0.077438
      6 C_05         24.8053   42.5917    2.0987 c8      1  lig      -0.194596
      7 C_06         19.6880   40.5151    5.5295 c9      1  lig      -0.007735
      8 C_07         19.3970   40.8120    6.8734 cb      1  lig       0.059783
      9 C_08         18.0969   40.6099    7.3595 ci      1  lig      -0.005603
     10 C_09         17.1044   40.1134    6.5151 cj      1  lig      -0.061351
     11 C_0a         17.3955   39.8141    5.1884 ck      1  lig      -0.119974
     12 C_0b         18.6784   40.0224    4.6979 cm      1  lig      -0.214050
     13 C_0c         21.0311   40.7308    4.9444 cn      1  lig       0.193192
     14 N_0d         21.0849   41.7512    4.0542 ng      1  lig      -0.478729
     15 C_0e         22.2536   41.9949    3.4287 co      1  lig       0.063767
     16 C_0f         23.3876   41.2120    3.6562 cq      1  lig       0.262864
     17 N_0g         23.3295   40.1869    4.5597 nr      1  lig      -0.376991
     18 C_0h         22.1602   39.9463    5.2058 cr      1  lig       0.501295
     19 Cl0i         17.6785   40.9865    8.9940 a0      1  lig      -0.044426
     20 Cl0j         20.6272   41.4363    7.9277 a1      1  lig      -0.142128
     21 N_0k         22.1325   38.8841    6.1087 nw      1  lig      -1.043232
     22 C_0l         28.1713   43.4659    3.9245 cs      1  lig      -0.123493
     23 C_0m         27.9599   42.4153    1.7087 ct      1  lig      -0.019330
     24 H_0n         25.5418   39.6858    3.7105 h0      1  lig       0.098481
     25 H_0o         26.1035   40.1645    2.1335 h6      1  lig       0.098481
     26 H_0p         27.7839   40.7770    3.8765 h7      1  lig      -0.008571
     27 H_0q         26.5428   41.5457    4.7791 h8      1  lig      -0.008571
     28 H_0r         26.0922   44.3272    2.0734 h9      1  lig      -0.016411
     29 H_0s         25.4755   43.9389    3.6240 hb      1  lig      -0.016411
     30 H_0t         23.9086   43.1927    1.9970 hd      1  lig       0.142532
     31 H_0u         25.0548   42.3035    1.0774 he      1  lig       0.142532
     32 H_0v         16.0979   39.9774    6.8828 hf      1  lig       0.151092
     33 H_0w         18.8869   39.7946    3.6591 hg      1  lig       0.202263
     34 H_0x         22.2197   42.8194    2.7371 hh      1  lig       0.126208
     35 H_0y         22.9863   38.3608    6.2905 hi      1  lig       0.461391
     36 H_0z         21.2877   38.6934    6.6244 hj      1  lig       0.461391
     37 H_10         27.3855   41.8135    1.0137 hk      1  lig       0.025457
     38 H_11         28.8919   41.8903    1.9260 hl      1  lig       0.025457
     39 H_12         28.2305   43.3531    1.2163 hm      1  lig       0.025457
     40 H_13         16.6291   39.4353    4.5313 hq      1  lig       0.170116
     41 H_14         29.2219   43.1499    3.9643 hr      1  lig       0.084425
     42 N_15         27.6581   43.5644    5.3258 nA      1  lig       0.044480
     43 H_16         28.1411   44.4660    3.7490 ht      1  lig       0.084425
     44 H_17         28.3153   44.1625    5.8628 hu      1  lig       0.197799
     45 H_18         26.7496   43.9973    5.3977 hv      1  lig       0.197799
     46 H_19         27.6704   42.6729    5.7808 hy      1  lig       0.197799
@<TRIPOS>BOND
     1     1     2    1
     2     1     6    1
     3     1    16    1
     4     2     3    1
     5     2    24    1
     6     2    25    1
     7     3     4    1
     8     3    26    1
     9     3    27    1
    10     4     5    1
    11     4    22    1
    12     4    23    1
    13     5     6    1
    14     5    28    1
    15     5    29    1
    16     6    30    1
    17     6    31    1
    18     7     8    2
    19     7    12    1
    20     7    13    1
    21     8     9    1
    22     8    20    1
    23     9    10    2
    24     9    19    1
    25    10    11    1
    26    10    32    1
    27    11    12    2
    28    11    40    1
    29    12    33    1
    30    13    14    2
    31    13    18    1
    32    14    15    1
    33    15    16    2
    34    15    34    1
    35    16    17    1
    36    17    18    2
    37    18    21    1
    38    21    35    1
    39    21    36    1
    40    22    41    1
    41    22    42    1
    42    22    43    1
    43    23    37    1
    44    23    38    1
    45    23    39    1
    46    42    44    1
    47    42    45    1
    48    42    46    1
