@<TRIPOS>MOLECULE
lig
  47   49 0 0 0
SMALL
NO_CHARGES


@<TRIPOS>ATOM
      1 N_00         24.7241   41.2613    2.6346 n0      1  lig      -0.397781
      2 C_01         25.8333   40.2945    2.6700 c4      1  lig      -0.065256
      3 C_02         26.9699   40.8429    3.5529 c5      1  lig      -0.041106
      4 C_03         27.4505   42.2668    3.1409 c6      1  lig       0.350130
      5 C_04         26.3237   43.1539    2.5080 c7      1  lig      -0.029904
      6 C_05         25.1614   42.4028    1.8201 c8      1  lig      -0.054297
      7 C_06         20.0829   40.6840    5.7737 c9      1  lig      -0.028797
      8 C_07         20.0391   40.8338    7.1767 cb      1  lig       0.011344
      9 C_08         18.8298   40.7034    7.8687 ci      1  lig      -0.034020
     10 C_09         17.6817   40.3910    7.1941 cj      1  lig      -0.069715
     11 C_0a         17.6939   40.2193    5.8132 ck      1  lig       0.205735
     12 C_0b         18.8855   40.3853    5.1133 cm      1  lig      -0.181914
     13 C_0c         21.3243   40.8337    4.9480 cn      1  lig      -0.003948
     14 C_0d         21.3462   41.8381    4.0268 co      1  lig       0.021208
     15 N_0e         22.4822   42.0243    3.3029 ng      1  lig      -0.501868
     16 C_0f         23.6278   41.2327    3.4968 cq      1  lig       0.677544
     17 N_0g         23.5916   40.2239    4.4038 nr      1  lig      -0.514531
     18 C_0h         22.4598   40.0202    5.1184 cr      1  lig       0.472612
     19 Cl0i         18.6695   40.7956    9.5758 a0      1  lig      -0.051436
     20 Cl0j         21.4608   41.0419    8.1147 a1      1  lig      -0.110298
     21 N_0k         22.4732   38.9282    5.9702 nw      1  lig      -0.882154
     22 C_0l         28.4859   42.0190    2.0282 cs      1  lig      -0.221880
     23 N_0m         28.1467   42.9714    4.2285 nA      1  lig      -0.603263
     24 H_0n         25.5078   39.3196    3.0310 h0      1  lig       0.098790
     25 H_0o         26.1989   40.1160    1.6558 h6      1  lig       0.098790
     26 H_0p         27.7954   40.1259    3.5498 h7      1  lig       0.036845
     27 H_0q         26.6252   40.8384    4.5927 h8      1  lig       0.036845
     28 H_0r         26.7345   43.8649    1.7863 h9      1  lig       0.029435
     29 H_0s         25.8911   43.7981    3.2771 hb      1  lig       0.029435
     30 H_0t         24.3292   43.0802    1.6218 hd      1  lig       0.097872
     31 H_0u         25.4809   42.0664    0.8308 he      1  lig       0.097872
     32 H_0v         16.7922   40.2785    7.7937 hf      1  lig       0.116401
     33 O_0w         16.5632   39.9184    5.1087 o0      1  lig      -0.303884
     34 H_0x         18.8724   40.2684    4.0412 hg      1  lig       0.150173
     35 H_0y         23.3386   38.4221    6.1486 hh      1  lig       0.417541
     36 H_0z         21.6432   38.7023    6.4991 hi      1  lig       0.417541
     37 C_10         15.3468   39.8935    5.8343 ct      1  lig      -0.020340
     38 H_11         14.5261   39.9323    5.1461 hj      1  lig       0.088346
     39 H_12         15.2219   40.7801    6.4384 hk      1  lig       0.088346
     40 H_13         15.2618   39.0000    6.4563 hl      1  lig       0.088346
     41 H_14         28.9929   42.8697    1.5493 hm      1  lig       0.081261
     42 H_15         28.0337   41.3963    1.2563 hq      1  lig       0.081261
     43 H_16         29.2374   41.3190    2.3934 hr      1  lig       0.081261
     44 H_17         28.4351   43.8848    3.9081 ht      1  lig       0.359997
     45 H_18         27.5241   43.0729    5.0173 hu      1  lig       0.359997
     46 H_19         28.9594   42.4405    4.5074 hv      1  lig       0.359997
     47 H_1a         20.4755   42.4616    3.8869 hy      1  lig       0.161467
@<TRIPOS>BOND
     1     1     2    1
     2     1     6    1
     3     1    16    1
     4     2     3    1
     5     2    24    1
     6     2    25    1
     7     3     4    1
     8     3    26    1
     9     3    27    1
    10     4     5    1
    11     4    22    1
    12     4    23    1
    13     5     6    1
    14     5    28    1
    15     5    29    1
    16     6    30    1
    17     6    31    1
    18     7     8    2
    19     7    12    1
    20     7    13    1
    21     8     9    1
    22     8    20    1
    23     9    10    2
    24     9    19    1
    25    10    11    1
    26    10    32    1
    27    11    12    2
    28    11    33    1
    29    12    34    1
    30    13    14    2
    31    13    18    1
    32    14    15    1
    33    14    47    1
    34    15    16    2
    35    16    17    1
    36    17    18    2
    37    18    21    1
    38    21    35    1
    39    21    36    1
    40    22    41    1
    41    22    42    1
    42    22    43    1
    43    23    44    1
    44    23    45    1
    45    23    46    1
    46    33    37    1
    47    37    38    1
    48    37    39    1
    49    37    40    1
