@<TRIPOS>MOLECULE
lig
  42   44 0 0 0
SMALL
NO_CHARGES


@<TRIPOS>ATOM
      1 N_00         24.5353   41.3991    2.9617 n0      1  lig      -0.468059
      2 C_01         24.7904   42.5868    2.1178 c4      1  lig      -0.057770
      3 C_02         25.8810   43.4864    2.7374 c5      1  lig      -0.026282
      4 C_03         27.1904   42.7177    3.0202 c6      1  lig       0.337284
      5 C_04         26.8799   41.4106    3.7771 c7      1  lig      -0.062672
      6 C_05         25.7613   40.5911    3.1100 c8      1  lig      -0.053380
      7 C_06         19.6930   40.5254    5.5288 c9      1  lig       0.006515
      8 C_07         19.4034   40.8157    6.8758 cb      1  lig       0.050338
      9 C_08         18.1082   40.6044    7.3696 ci      1  lig      -0.000895
     10 C_09         17.1167   40.0887    6.5328 cj      1  lig      -0.057755
     11 C_0a         17.4098   39.7819    5.2071 ck      1  lig      -0.120107
     12 C_0b         18.6895   40.0203    4.7125 cm      1  lig      -0.233097
     13 C_0c         21.0365   40.7490    4.9467 cn      1  lig       0.335550
     14 N_0d         21.1333   41.7708    4.0585 ng      1  lig      -0.366106
     15 N_0e         22.2940   41.9986    3.4273 nr      1  lig      -0.305451
     16 C_0f         23.3597   41.1910    3.6865 co      1  lig       0.751891
     17 N_0g         23.3270   40.1643    4.5796 nw      1  lig      -0.533675
     18 C_0h         22.1528   39.9456    5.2064 cq      1  lig       0.437767
     19 Cl0i         17.6833   41.0096    8.9986 a0      1  lig      -0.065503
     20 Cl0j         20.6245   41.4803    7.9166 a1      1  lig      -0.103817
     21 N_0k         22.1086   38.8756    6.0941 nA      1  lig      -0.906430
     22 N_0l         28.0640   43.6032    3.9216 nB      1  lig      -0.565626
     23 C_0m         27.9783   42.4349    1.7217 cr      1  lig      -0.210345
     24 H_0n         25.0622   42.2702    1.1121 h0      1  lig       0.099936
     25 H_0o         23.8919   43.1904    1.9925 h6      1  lig       0.099936
     26 H_0p         25.4681   43.9379    3.6411 h7      1  lig       0.028615
     27 H_0q         26.0761   44.3323    2.0760 h8      1  lig       0.028615
     28 H_0r         26.5552   41.6277    4.7883 h9      1  lig       0.043898
     29 H_0s         27.7778   40.8018    3.8837 hb      1  lig       0.043898
     30 H_0t         26.0791   40.2303    2.1341 hd      1  lig       0.109285
     31 H_0u         25.5850   39.6899    3.6945 he      1  lig       0.109285
     32 H_0v         16.1095   39.9553    6.9017 hf      1  lig       0.143778
     33 H_0w         16.6477   39.3919    4.5519 hg      1  lig       0.163673
     34 H_0x         18.8949   39.7782    3.6715 hh      1  lig       0.198617
     35 H_0y         22.9746   38.3788    6.2904 hi      1  lig       0.427609
     36 H_0z         21.2689   38.6932    6.6209 hj      1  lig       0.427609
     37 H_10         28.9333   43.1400    4.1444 hk      1  lig       0.351161
     38 H_11         27.4275   41.7736    1.0493 hl      1  lig       0.079796
     39 H_12         28.9366   41.9502    1.9281 hm      1  lig       0.079796
     40 H_13         28.1799   43.3541    1.1679 hq      1  lig       0.079796
     41 H_14         28.2675   44.4651    3.4205 hr      1  lig       0.351161
     42 H_15         27.5917   43.8449    4.7797 ht      1  lig       0.351161
@<TRIPOS>BOND
     1     1     2    1
     2     1     6    1
     3     1    16    1
     4     2     3    1
     5     2    24    1
     6     2    25    1
     7     3     4    1
     8     3    26    1
     9     3    27    1
    10     4     5    1
    11     4    22    1
    12     4    23    1
    13     5     6    1
    14     5    28    1
    15     5    29    1
    16     6    30    1
    17     6    31    1
    18     7     8    2
    19     7    12    1
    20     7    13    1
    21     8     9    1
    22     8    20    1
    23     9    10    2
    24     9    19    1
    25    10    11    1
    26    10    32    1
    27    11    12    2
    28    11    33    1
    29    12    34    1
    30    13    14    2
    31    13    18    1
    32    14    15    1
    33    15    16    2
    34    16    17    1
    35    17    18    2
    36    18    21    1
    37    21    35    1
    38    21    36    1
    39    22    37    1
    40    22    41    1
    41    22    42    1
    42    23    38    1
    43    23    39    1
    44    23    40    1
