@<TRIPOS>MOLECULE
lig
  47   49 0 0 0
SMALL
NO_CHARGES


@<TRIPOS>ATOM
      1 N_00         24.4107   41.3723    2.7009 n0      1  lig      -0.377232
      2 C_01         24.7838   42.6182    2.0126 c4      1  lig      -0.080618
      3 C_02         25.7794   43.4100    2.8966 c5      1  lig      -0.062511
      4 C_03         27.0503   42.5825    3.2063 c6      1  lig       0.396750
      5 C_04         26.6622   41.1652    3.7013 c7      1  lig      -0.029456
      6 C_05         25.6079   40.5090    2.7764 c8      1  lig      -0.044694
      7 C_06         19.8516   40.7173    5.9010 c9      1  lig      -0.145437
      8 C_07         18.7679   40.1939    5.2879 cb      1  lig      -0.160405
      9 C_08         17.4557   39.8383    5.9773 ci      1  lig       0.011708
     10 C_09         17.5170   39.9824    7.5197 cj      1  lig       0.004999
     11 C_0a         18.5283   41.0246    8.0301 ck      1  lig      -0.014202
     12 C_0b         19.9293   40.8002    7.4266 cm      1  lig       0.011181
     13 C_0c         21.0896   40.8699    5.1066 cn      1  lig       0.309929
     14 N_0d         21.1118   41.9493    4.2811 ng      1  lig      -0.441721
     15 C_0e         22.2110   42.1308    3.5040 co      1  lig       0.007441
     16 C_0f         23.3187   41.2685    3.5616 cq      1  lig       0.220248
     17 N_0g         23.2859   40.1996    4.4067 nr      1  lig      -0.203997
     18 C_0h         22.1835   39.9940    5.1662 cr      1  lig       0.298267
     19 N_0i         22.1653   38.8572    5.9693 nw      1  lig      -0.937478
     20 N_0j         27.7758   43.2939    4.3522 nA      1  lig      -0.635435
     21 C_0k         28.0247   42.5438    2.0086 cs      1  lig      -0.207245
     22 H_0l         25.2593   42.3635    1.0629 h0      1  lig       0.112350
     23 H_0m         23.9239   43.2239    1.7281 h6      1  lig       0.112350
     24 H_0n         25.2565   43.6727    3.8197 h7      1  lig       0.041688
     25 H_0o         26.0356   44.3662    2.4332 h8      1  lig       0.041688
     26 H_0p         26.2316   41.2047    4.7056 h9      1  lig       0.014179
     27 H_0q         27.5425   40.5253    3.7846 hb      1  lig       0.014179
     28 H_0r         26.0191   40.3826    1.7722 hd      1  lig       0.090368
     29 H_0s         25.3571   39.5018    3.1076 he      1  lig       0.090368
     30 H_0t         18.8198   40.0275    4.2183 hf      1  lig       0.126627
     31 H_0u         17.1576   38.8236    5.7071 hg      1  lig       0.036616
     32 H_0v         16.6743   40.4781    5.5749 hh      1  lig       0.036616
     33 H_0w         16.5193   40.1998    7.9100 hi      1  lig       0.009191
     34 H_0x         17.7737   39.0117    7.9454 hj      1  lig       0.009191
     35 H_0y         18.5840   40.9789    9.1205 hk      1  lig       0.016272
     36 H_0z         18.1707   42.0204    7.7852 hl      1  lig       0.016272
     37 H_10         20.6237   41.5803    7.7370 hm      1  lig       0.029332
     38 H_11         20.3330   39.8688    7.8277 hq      1  lig       0.029332
     39 H_12         22.1715   42.9725    2.8339 hr      1  lig       0.127549
     40 H_13         21.3346   38.6403    6.4968 ht      1  lig       0.399672
     41 H_14         23.0121   38.3087    6.0818 hu      1  lig       0.399672
     42 H_15         28.6348   42.8196    4.5944 hv      1  lig       0.367978
     43 H_16         28.0010   44.2418    4.0797 hy      1  lig       0.367978
     44 H_17         27.5905   42.0350    1.1500 hz      1  lig       0.074154
     45 H_18         28.9484   42.0199    2.2567 hA      1  lig       0.074154
     46 H_19         28.2988   43.5491    1.6812 hB      1  lig       0.074154
     47 H_1a         27.1913   43.3357    5.1774 hC      1  lig       0.367978
@<TRIPOS>BOND
     1     1     2    1
     2     1     6    1
     3     1    16    1
     4     2     3    1
     5     2    22    1
     6     2    23    1
     7     3     4    1
     8     3    24    1
     9     3    25    1
    10     4     5    1
    11     4    20    1
    12     4    21    1
    13     5     6    1
    14     5    26    1
    15     5    27    1
    16     6    28    1
    17     6    29    1
    18     7     8    2
    19     7    12    1
    20     7    13    1
    21     8     9    1
    22     8    30    1
    23     9    10    1
    24     9    31    1
    25     9    32    1
    26    10    11    1
    27    10    33    1
    28    10    34    1
    29    11    12    1
    30    11    35    1
    31    11    36    1
    32    12    37    1
    33    12    38    1
    34    13    14    2
    35    13    18    1
    36    14    15    1
    37    15    16    2
    38    15    39    1
    39    16    17    1
    40    17    18    2
    41    18    19    1
    42    19    40    1
    43    19    41    1
    44    20    42    1
    45    20    43    1
    46    20    47    1
    47    21    44    1
    48    21    45    1
    49    21    46    1
