@<TRIPOS>MOLECULE
lig
  43   45 0 0 0
SMALL
NO_CHARGES


@<TRIPOS>ATOM
      1 N_00         24.5464   41.3949    2.9263 n0      1  lig      -0.379234
      2 C_01         25.7503   40.5506    3.0678 c4      1  lig      -0.051162
      3 C_02         26.8709   41.3386    3.7371 c5      1  lig       0.091730
      4 C_03         27.1915   42.6963    3.0590 c6      1  lig       0.003073
      5 C_04         25.8970   43.4712    2.7117 c7      1  lig       0.129859
      6 C_05         24.8154   42.5795    2.0867 c8      1  lig      -0.173472
      7 C_06         19.6840   40.5121    5.5351 c9      1  lig      -0.008766
      8 C_07         19.3973   40.8099    6.8784 cb      1  lig       0.057985
      9 C_08         18.0967   40.6108    7.3636 ci      1  lig      -0.005152
     10 C_09         17.1071   40.1041    6.5219 cj      1  lig      -0.060464
     11 C_0a         17.3987   39.8007    5.1957 ck      1  lig      -0.121775
     12 C_0b         18.6780   40.0165    4.7027 cm      1  lig      -0.212021
     13 C_0c         21.0250   40.7291    4.9494 cn      1  lig       0.188610
     14 N_0d         21.0676   41.7591    4.0708 ng      1  lig      -0.475426
     15 C_0e         22.2387   42.0000    3.4418 co      1  lig       0.053422
     16 C_0f         23.3752   41.2250    3.6683 cq      1  lig       0.284067
     17 N_0g         23.3242   40.1927    4.5641 nr      1  lig      -0.381321
     18 C_0h         22.1526   39.9513    5.2085 cr      1  lig       0.503511
     19 Cl0i         17.6773   41.0128    8.9912 a0      1  lig      -0.043575
     20 Cl0j         20.6231   41.4655    7.9185 a1      1  lig      -0.142554
     21 N_0k         22.1265   38.8828    6.1041 nw      1  lig      -1.042004
     22 C_0l         28.1625   43.5343    3.8924 cs      1  lig      -0.062816
     23 H_0m         25.5587   39.6764    3.6932 h0      1  lig       0.096690
     24 H_0n         26.0969   40.1748    2.1061 h6      1  lig       0.096690
     25 H_0o         27.7908   40.7659    3.8607 h7      1  lig      -0.007530
     26 H_0p         26.5127   41.4833    4.7526 h8      1  lig      -0.007530
     27 H_0q         26.1111   44.3263    2.0672 h9      1  lig      -0.021584
     28 H_0r         25.4516   43.9274    3.5976 hb      1  lig      -0.021584
     29 H_0s         23.9414   43.2111    1.9643 hd      1  lig       0.135968
     30 H_0t         25.0798   42.2770    1.0727 he      1  lig       0.135968
     31 H_0u         16.0992   39.9731    6.8871 hf      1  lig       0.151184
     32 H_0v         18.8916   39.7797    3.6691 hg      1  lig       0.202694
     33 H_0w         22.1946   42.8157    2.7405 hh      1  lig       0.128166
     34 H_0x         22.9841   38.3692    6.2894 hi      1  lig       0.462174
     35 H_0y         21.2832   38.6944    6.6229 hj      1  lig       0.462174
     36 H_0z         16.6388   39.4078    4.5399 hk      1  lig       0.170733
     37 H_10         29.2212   43.2300    3.9016 hl      1  lig       0.083714
     38 N_11         27.6786   43.5174    5.3054 nA      1  lig       0.021820
     39 H_12         27.9748   44.5967    3.9512 hm      1  lig       0.083714
     40 H_13         28.3182   44.0905    5.8559 hq      1  lig       0.200111
     41 H_14         26.7558   43.9317    5.3912 hr      1  lig       0.200111
     42 H_15         27.6585   42.4680    2.0998 ht      1  lig       0.073691
     43 H_16         27.6933   42.6032    5.7389 hu      1  lig       0.200111
@<TRIPOS>BOND
     1     1     2    1
     2     1     6    1
     3     1    16    1
     4     2     3    1
     5     2    23    1
     6     2    24    1
     7     3     4    1
     8     3    25    1
     9     3    26    1
    10     4     5    1
    11     4    22    1
    12     4    42    1
    13     5     6    1
    14     5    27    1
    15     5    28    1
    16     6    29    1
    17     6    30    1
    18     7     8    2
    19     7    12    1
    20     7    13    1
    21     8     9    1
    22     8    20    1
    23     9    10    2
    24     9    19    1
    25    10    11    1
    26    10    31    1
    27    11    12    2
    28    11    36    1
    29    12    32    1
    30    13    14    2
    31    13    18    1
    32    14    15    1
    33    15    16    2
    34    15    33    1
    35    16    17    1
    36    17    18    2
    37    18    21    1
    38    21    34    1
    39    21    35    1
    40    22    37    1
    41    22    38    1
    42    22    39    1
    43    38    40    1
    44    38    41    1
    45    38    43    1
