@<TRIPOS>MOLECULE
lig
  46   48 0 0 0
SMALL
NO_CHARGES


@<TRIPOS>ATOM
      1 N_00         24.6100   41.5762    3.1805 n0      1  lig      -0.272479
      2 C_01         25.1012   42.9418    2.9241 c4      1  lig      -0.199663
      3 C_02         26.5271   43.2119    3.4404 c5      1  lig      -0.034714
      4 C_03         27.5120   42.1773    2.8862 c6      1  lig       0.338335
      5 C_04         27.0075   40.8187    3.4015 c7      1  lig      -0.022253
      6 C_05         25.5915   40.5142    2.8619 c8      1  lig      -0.224877
      7 C_06         19.6895   40.5804    5.6954 c9      1  lig       0.074485
      8 C_07         19.5253   40.8623    7.0657 cb      1  lig       0.056279
      9 C_08         18.3098   40.5691    7.7016 ci      1  lig      -0.006029
     10 C_09         17.2585   40.0212    6.9710 cj      1  lig      -0.059028
     11 C_0a         17.4135   39.7425    5.6150 ck      1  lig      -0.153236
     12 C_0b         18.6218   40.0211    4.9824 cm      1  lig      -0.208015
     13 C_0c         20.9859   40.8084    5.0038 cn      1  lig       0.273090
     14 N_0d         20.9938   41.7637    4.0398 ng      1  lig      -0.532997
     15 C_0e         22.1560   42.0156    3.3787 co      1  lig       0.329548
     16 C_0f         23.3435   41.3173    3.7063 cq      1  lig       0.102781
     17 N_0g         23.3074   40.3369    4.6515 nr      1  lig      -0.172362
     18 C_0h         22.1430   40.0739    5.2861 cr      1  lig       0.228220
     19 Cl0i         18.0795   40.8700    9.3883 a0      1  lig      -0.070774
     20 Cl0j         20.8043   41.6192    7.9628 a1      1  lig      -0.119347
     21 N_0k         22.1461   39.0394    6.2158 nw      1  lig      -0.848265
     22 N_0l         28.8772   42.4513    3.5251 nA      1  lig      -0.685937
     23 C_0m         27.7125   42.2524    1.3549 cs      1  lig      -0.127258
     24 H_0n         25.0251   43.1641    1.8595 h0      1  lig       0.134198
     25 H_0o         24.4482   43.6227    3.4588 h6      1  lig       0.134198
     26 H_0p         26.5072   43.2143    4.5307 h7      1  lig       0.047832
     27 H_0q         26.8355   44.2201    3.1804 h8      1  lig       0.047832
     28 H_0r         26.9672   40.7880    4.4945 h9      1  lig       0.026850
     29 H_0s         27.6964   40.0229    3.1443 hb      1  lig       0.026850
     30 H_0t         25.6085   40.3843    1.7784 hd      1  lig       0.146801
     31 H_0u         25.2756   39.5545    3.2675 he      1  lig       0.146801
     32 H_0v         16.3244   39.7869    7.4634 hf      1  lig       0.145095
     33 H_0w         18.7352   39.7751    3.9346 hg      1  lig       0.192277
     34 C_0x         21.9938   42.9789    2.2034 ct      1  lig      -0.149396
     35 H_0y         23.0100   38.5389    6.4063 hh      1  lig       0.381962
     36 H_0z         21.2983   38.8233    6.7146 hi      1  lig       0.381962
     37 H_10         29.5591   41.7753    3.1813 hj      1  lig       0.383146
     38 H_11         26.7880   42.0817    0.8050 hk      1  lig       0.060664
     39 H_12         28.4324   41.5072    1.0133 hl      1  lig       0.060664
     40 H_13         28.0791   43.2320    1.0448 hm      1  lig       0.060664
     41 H_14         29.1960   43.3780    3.2760 hq      1  lig       0.383146
     42 H_15         16.6052   39.2945    5.0545 hr      1  lig       0.170037
     43 H_16         21.2382   43.7363    2.4123 ht      1  lig       0.056589
     44 H_17         21.6793   42.4241    1.3190 hu      1  lig       0.056589
     45 H_18         22.8897   43.5171    1.9214 hv      1  lig       0.056589
     46 H_19         28.8262   42.3954    4.5336 hy      1  lig       0.383146
@<TRIPOS>BOND
     1     1     2    1
     2     1     6    1
     3     1    16    1
     4     2     3    1
     5     2    24    1
     6     2    25    1
     7     3     4    1
     8     3    26    1
     9     3    27    1
    10     4     5    1
    11     4    22    1
    12     4    23    1
    13     5     6    1
    14     5    28    1
    15     5    29    1
    16     6    30    1
    17     6    31    1
    18     7     8    2
    19     7    12    1
    20     7    13    1
    21     8     9    1
    22     8    20    1
    23     9    10    2
    24     9    19    1
    25    10    11    1
    26    10    32    1
    27    11    12    2
    28    11    42    1
    29    12    33    1
    30    13    14    2
    31    13    18    1
    32    14    15    1
    33    15    16    2
    34    15    34    1
    35    16    17    1
    36    17    18    2
    37    18    21    1
    38    21    35    1
    39    21    36    1
    40    22    37    1
    41    22    41    1
    42    22    46    1
    43    23    38    1
    44    23    39    1
    45    23    40    1
    46    34    43    1
    47    34    44    1
    48    34    45    1
