@<TRIPOS>MOLECULE
lig
  40   42 0 0 0
SMALL
NO_CHARGES


@<TRIPOS>ATOM
      1 N_00         24.5401   41.3989    2.9532 n0      1  lig      -0.409048
      2 C_01         24.8051   42.5811    2.1091 c4      1  lig      -0.042674
      3 C_02         25.8867   43.4859    2.7414 c5      1  lig      -0.020668
      4 C_03         27.1959   42.7112    3.0057 c6      1  lig       0.380584
      5 C_04         26.8794   41.4168    3.7759 c7      1  lig      -0.041469
      6 C_05         25.7664   40.5923    3.1008 c8      1  lig      -0.050032
      7 C_06         21.0145   40.7222    4.9516 c9      1  lig      -0.026848
      8 C_07         21.1622   41.7734    4.0578 cb      1  lig       0.060653
      9 N_08         22.3208   42.0228    3.4091 ng      1  lig      -0.516234
     10 C_09         23.3684   41.1984    3.6775 ci      1  lig       0.707443
     11 N_0a         23.3236   40.1664    4.5710 nr      1  lig      -0.574204
     12 C_0b         22.1459   39.9363    5.1958 cj      1  lig       0.528100
     13 N_0c         22.1027   38.8666    6.0810 nw      1  lig      -0.818558
     14 N_0d         28.0896   43.5958    3.9002 nA      1  lig      -0.566449
     15 C_0e         27.9640   42.4179    1.7000 ck      1  lig      -0.254501
     16 H_0f         25.0995   42.2499    1.1137 h0      1  lig       0.091948
     17 H_0g         23.9127   43.1864    1.9546 h6      1  lig       0.091948
     18 H_0h         25.4693   43.9239    3.6497 h7      1  lig       0.026484
     19 H_0i         26.0748   44.3406    2.0903 h8      1  lig       0.026484
     20 H_0j         26.5404   41.6483    4.7775 h9      1  lig       0.036076
     21 H_0k         27.7726   40.8054    3.9001 hb      1  lig       0.036076
     22 H_0l         26.0868   40.2603    2.1152 hd      1  lig       0.098380
     23 H_0m         25.5901   39.6802    3.6671 he      1  lig       0.098380
     24 H_0n         28.9764   43.1472    4.0723 hf      1  lig       0.346403
     25 H_0o         27.3702   41.8206    1.0036 hg      1  lig       0.086183
     26 H_0p         28.8797   41.8544    1.8898 hh      1  lig       0.086183
     27 H_0q         28.2303   43.3358    1.1767 hi      1  lig       0.086183
     28 H_0r         28.2507   44.4725    3.4086 hj      1  lig       0.346403
     29 H_0s         22.9628   38.3587    6.2652 hk      1  lig       0.386647
     30 H_0t         20.3462   42.4465    3.8573 hl      1  lig       0.155191
     31 H_0u         21.2513   38.6714    6.5822 hm      1  lig       0.386647
     32 C_0v         19.6898   40.4893    5.5418 cm      1  lig      -0.140991
     33 C_0w         18.5442   40.0172    4.9256 cn      1  lig      -0.119517
     34 C_0x         17.4539   39.9740    5.7859 co      1  lig      -0.099585
     35 C_0y         17.7753   40.4507    7.0396 cq      1  lig      -0.044290
     36 S_0z         19.4367   40.8750    7.2092 s0      1  lig       0.018854
     37 H_10         18.5049   39.6859    3.8981 hq      1  lig       0.155558
     38 H_11         16.4770   39.6243    5.4935 hr      1  lig       0.161085
     39 Cl12         16.7315   40.6794    8.3518 a0      1  lig      -0.019228
     40 H_13         27.6528   43.8098    4.7840 ht      1  lig       0.346403
@<TRIPOS>BOND
     1     1     2    1
     2     1     6    1
     3     1    10    1
     4     2     3    1
     5     2    16    1
     6     2    17    1
     7     3     4    1
     8     3    18    1
     9     3    19    1
    10     4     5    1
    11     4    14    1
    12     4    15    1
    13     5     6    1
    14     5    20    1
    15     5    21    1
    16     6    22    1
    17     6    23    1
    18     7     8    2
    19     7    12    1
    20     7    32    1
    21     8     9    1
    22     8    30    1
    23     9    10    2
    24    10    11    1
    25    11    12    2
    26    12    13    1
    27    13    29    1
    28    13    31    1
    29    14    24    1
    30    14    28    1
    31    14    40    1
    32    15    25    1
    33    15    26    1
    34    15    27    1
    35    32    33    2
    36    32    36    1
    37    33    34    1
    38    33    37    1
    39    34    35    2
    40    34    38    1
    41    35    36    1
    42    35    39    1
