@<TRIPOS>MOLECULE
lig
  43   45 0 0 0
SMALL
NO_CHARGES


@<TRIPOS>ATOM
      1 N_00         24.5430   41.4114    2.9550 n0      1  lig      -0.419497
      2 C_01         25.7642   40.5993    3.0891 c4      1  lig      -0.036446
      3 C_02         26.8786   41.4166    3.7666 c5      1  lig      -0.034829
      4 C_03         27.2006   42.7127    3.0029 c6      1  lig       0.375540
      5 C_04         25.8937   43.4892    2.7374 c7      1  lig      -0.028032
      6 C_05         24.8050   42.5910    2.1109 c8      1  lig      -0.031085
      7 C_06         21.0144   40.7174    4.9510 c9      1  lig      -0.018661
      8 C_07         21.1677   41.7795    4.0783 cb      1  lig       0.071746
      9 N_08         22.3249   42.0375    3.4270 ng      1  lig      -0.531016
     10 C_09         23.3661   41.2020    3.6845 ci      1  lig       0.705778
     11 N_0a         23.3235   40.1654    4.5608 nr      1  lig      -0.571139
     12 C_0b         22.1453   39.9248    5.1862 cj      1  lig       0.527811
     13 N_0c         22.0944   38.8546    6.0735 nw      1  lig      -0.810402
     14 N_0d         28.0809   43.5947    3.9100 nA      1  lig      -0.593734
     15 C_0e         27.9740   42.4207    1.6938 ck      1  lig      -0.248237
     16 H_0f         26.0828   40.2778    2.0962 h0      1  lig       0.092792
     17 H_0g         25.5977   39.6787    3.6476 h6      1  lig       0.092792
     18 H_0h         26.5281   41.6511    4.7617 h7      1  lig       0.033478
     19 H_0i         27.7693   40.8029    3.8916 h8      1  lig       0.033478
     20 H_0j         25.4814   43.9202    3.6497 h9      1  lig       0.028366
     21 H_0k         26.0840   44.3456    2.0896 hb      1  lig       0.028366
     22 H_0l         25.0984   42.2408    1.1213 hd      1  lig       0.090072
     23 H_0m         23.9190   43.2070    1.9498 he      1  lig       0.090072
     24 H_0n         28.9707   43.1542    4.0991 hf      1  lig       0.353958
     25 H_0o         28.8895   41.8542    1.8809 hg      1  lig       0.084711
     26 H_0p         28.2450   43.3369    1.1662 hh      1  lig       0.084711
     27 H_0q         27.3855   41.8245    0.9924 hi      1  lig       0.084711
     28 H_0r         28.2454   44.4799    3.4324 hj      1  lig       0.353958
     29 H_0s         22.9535   38.3533    6.2811 hk      1  lig       0.382637
     30 H_0t         20.3465   42.4591    3.9019 hl      1  lig       0.151006
     31 H_0u         21.2404   38.6627    6.5726 hm      1  lig       0.382637
     32 C_0v         19.7006   40.4765    5.5478 cm      1  lig      -0.160368
     33 C_0w         18.5441   40.0185    4.9425 cn      1  lig      -0.097263
     34 C_0x         17.4703   39.9918    5.8252 co      1  lig      -0.244825
     35 C_0y         17.7949   40.4352    7.0994 cq      1  lig       0.070805
     36 S_0z         19.4745   40.8098    7.2203 s0      1  lig      -0.063497
     37 H_10         18.4766   39.7097    3.9112 hq      1  lig       0.150767
     38 H_11         16.4831   39.6652    5.5342 hr      1  lig       0.187109
     39 C_12         16.9032   40.6023    8.2756 cr      1  lig      -0.197424
     40 H_13         16.7941   41.6460    8.5777 ht      1  lig       0.091732
     41 H_14         17.2872   40.0431    9.1251 hu      1  lig       0.091732
     42 H_15         15.9194   40.2081    8.0272 hv      1  lig       0.091732
     43 H_16         27.6324   43.8025    4.7935 hy      1  lig       0.353958
@<TRIPOS>BOND
     1     1     2    1
     2     1     6    1
     3     1    10    1
     4     2     3    1
     5     2    16    1
     6     2    17    1
     7     3     4    1
     8     3    18    1
     9     3    19    1
    10     4     5    1
    11     4    14    1
    12     4    15    1
    13     5     6    1
    14     5    20    1
    15     5    21    1
    16     6    22    1
    17     6    23    1
    18     7     8    2
    19     7    12    1
    20     7    32    1
    21     8     9    1
    22     8    30    1
    23     9    10    2
    24    10    11    1
    25    11    12    2
    26    12    13    1
    27    13    29    1
    28    13    31    1
    29    14    24    1
    30    14    28    1
    31    14    43    1
    32    15    25    1
    33    15    26    1
    34    15    27    1
    35    32    33    2
    36    32    36    1
    37    33    34    1
    38    33    37    1
    39    34    35    2
    40    34    38    1
    41    35    36    1
    42    35    39    1
    43    39    40    1
    44    39    41    1
    45    39    42    1
