@<TRIPOS>MOLECULE
lig
  43   45 0 0 0
SMALL
NO_CHARGES


@<TRIPOS>ATOM
      1 N_00         24.5395   41.6049    3.1578 n0      1  lig      -0.414419
      2 C_01         24.8999   42.8662    2.5072 c4      1  lig      -0.106945
      3 C_02         26.2796   43.3664    2.9523 c5      1  lig      -0.043776
      4 C_03         27.3815   42.3279    2.6866 c6      1  lig       0.311972
      5 C_04         26.9458   40.9995    3.3439 c7      1  lig      -0.030710
      6 C_05         25.5393   40.5572    2.8667 c8      1  lig      -0.128486
      7 C_06         19.6658   40.5877    5.7494 c9      1  lig       0.051292
      8 C_07         19.5101   40.8644    7.1230 cb      1  lig       0.054592
      9 C_08         18.3019   40.5656    7.7663 ci      1  lig       0.000582
     10 C_09         17.2448   40.0200    7.0430 cj      1  lig      -0.061614
     11 C_0a         17.3911   39.7426    5.6865 ck      1  lig      -0.144179
     12 C_0b         18.5948   40.0214    5.0464 cm      1  lig      -0.206886
     13 C_0c         20.9506   40.8311    5.0393 cn      1  lig       0.320476
     14 N_0d         20.9222   41.7408    4.0321 ng      1  lig      -0.441686
     15 C_0e         22.0724   42.0023    3.3571 co      1  lig       0.078366
     16 C_0f         23.2821   41.3525    3.6978 cq      1  lig       0.394122
     17 N_0g         23.2822   40.4119    4.6800 nr      1  lig      -0.227214
     18 C_0h         22.1374   40.1598    5.3456 cr      1  lig       0.212154
     19 Cl0i         18.0811   40.8514    9.4592 a0      1  lig      -0.068261
     20 Cl0j         20.7877   41.6202    8.0217 a1      1  lig      -0.116218
     21 N_0k         22.2064   39.2134    6.3526 nw      1  lig      -0.839053
     22 N_0l         28.6518   42.8205    3.3925 nA      1  lig      -0.633627
     23 C_0m         27.7192   42.1830    1.1873 cs      1  lig      -0.139350
     24 H_0n         24.8060   42.7849    1.4224 h0      1  lig       0.117739
     25 H_0o         24.2071   43.6203    2.8514 h6      1  lig       0.117739
     26 H_0p         26.2187   43.6200    4.0124 h7      1  lig       0.044735
     27 H_0q         26.4809   44.3100    2.4460 h8      1  lig       0.044735
     28 H_0r         26.9083   41.0885    4.4322 h9      1  lig       0.025039
     29 H_0s         27.6786   40.2175    3.1547 hb      1  lig       0.025039
     30 H_0t         25.5294   40.3513    1.7952 hd      1  lig       0.126800
     31 H_0u         25.2850   39.6205    3.3614 he      1  lig       0.126800
     32 H_0v         16.3102   39.7963    7.5376 hf      1  lig       0.146228
     33 H_0w         18.6982   39.7803    3.9951 hg      1  lig       0.189978
     34 Br0x         21.8404   43.2207    1.9002 e0      1  lig      -0.046395
     35 H_0y         23.0751   38.7102    6.5111 hh      1  lig       0.388217
     36 H_0z         21.3652   38.9553    6.8422 hi      1  lig       0.388217
     37 H_10         29.4272   42.2022    3.1879 hj      1  lig       0.371600
     38 H_11         26.8613   41.8500    0.6054 hk      1  lig       0.066257
     39 H_12         28.5187   41.4571    1.0264 hl      1  lig       0.066257
     40 H_13         28.0402   43.1320    0.7525 hm      1  lig       0.066257
     41 H_14         28.8750   43.7542    3.0739 hq      1  lig       0.371600
     42 H_15         16.5761   39.2981    5.1323 hr      1  lig       0.170426
     43 H_16         28.5166   42.8522    4.3941 ht      1  lig       0.371600
@<TRIPOS>BOND
     1     1     2    1
     2     1     6    1
     3     1    16    1
     4     2     3    1
     5     2    24    1
     6     2    25    1
     7     3     4    1
     8     3    26    1
     9     3    27    1
    10     4     5    1
    11     4    22    1
    12     4    23    1
    13     5     6    1
    14     5    28    1
    15     5    29    1
    16     6    30    1
    17     6    31    1
    18     7     8    2
    19     7    12    1
    20     7    13    1
    21     8     9    1
    22     8    20    1
    23     9    10    2
    24     9    19    1
    25    10    11    1
    26    10    32    1
    27    11    12    2
    28    11    42    1
    29    12    33    1
    30    13    14    2
    31    13    18    1
    32    14    15    1
    33    15    16    2
    34    15    34    1
    35    16    17    1
    36    17    18    2
    37    18    21    1
    38    21    35    1
    39    21    36    1
    40    22    37    1
    41    22    41    1
    42    22    43    1
    43    23    38    1
    44    23    39    1
    45    23    40    1
