@<TRIPOS>MOLECULE
lig
  44   46 0 0 0
SMALL
NO_CHARGES


@<TRIPOS>ATOM
      1 N_00         24.5541   41.4086    2.9391 n0      1  lig      -0.421631
      2 C_01         24.8162   42.5900    2.0939 c4      1  lig      -0.042716
      3 C_02         25.8942   43.4882    2.7380 c5      1  lig      -0.024167
      4 C_03         27.1958   42.7090    3.0142 c6      1  lig       0.354573
      5 C_04         26.8854   41.4093    3.7822 c7      1  lig      -0.041146
      6 C_05         25.7779   40.5804    3.0987 c8      1  lig      -0.054964
      7 C_06         19.7564   40.5728    5.6014 c9      1  lig      -0.060022
      8 C_07         19.4547   40.9011    6.9415 cb      1  lig       0.041739
      9 C_08         18.1494   40.6979    7.4298 ci      1  lig      -0.012664
     10 C_09         17.1817   40.1496    6.5987 cj      1  lig      -0.165346
     11 C_0a         17.5342   39.8095    5.2908 ck      1  lig       0.253604
     12 C_0b         18.7834   40.0332    4.7935 cm      1  lig      -0.147677
     13 C_0c         21.0555   40.7706    4.9811 cn      1  lig      -0.028125
     14 C_0d         21.1033   41.7740    4.0767 co      1  lig       0.029303
     15 N_0e         22.2526   42.0186    3.4385 ng      1  lig      -0.509058
     16 C_0f         23.4020   41.2202    3.6592 cq      1  lig       0.710177
     17 N_0g         23.3305   40.2002    4.5650 nr      1  lig      -0.505467
     18 C_0h         22.1801   39.9475    5.2152 cr      1  lig       0.446964
     19 Cl0i         17.6819   41.1426    9.0368 a0      1  lig      -0.050513
     20 Cl0j         20.6649   41.6022    7.9487 a1      1  lig      -0.107543
     21 N_0k         22.1235   38.8853    6.1019 nw      1  lig      -0.872323
     22 N_0l         28.1023   43.5979    3.8918 nA      1  lig      -0.601472
     23 C_0m         27.9589   42.4195    1.7111 cs      1  lig      -0.232471
     24 H_0n         25.1155   42.2545    1.1021 h0      1  lig       0.095086
     25 H_0o         23.9209   43.1944    1.9448 h6      1  lig       0.095086
     26 H_0p         25.4809   43.9293    3.6447 h7      1  lig       0.027514
     27 H_0q         26.0877   44.3393    2.0844 h8      1  lig       0.027514
     28 H_0r         26.5544   41.6337    4.7911 h9      1  lig       0.035699
     29 H_0s         27.7848   40.8008    3.9031 hb      1  lig       0.035699
     30 H_0t         26.1017   40.2324    2.1198 hd      1  lig       0.095889
     31 H_0u         25.5813   39.6721    3.6761 he      1  lig       0.095889
     32 H_0v         16.1633   39.9801    6.9291 hf      1  lig       0.148791
     33 O_0w         16.7880   39.2082    4.4520 o0      1  lig      -0.574570
     34 H_0x         18.9577   39.7583    3.7588 hg      1  lig       0.177107
     35 H_0y         22.9880   38.3677    6.2895 hh      1  lig       0.417509
     36 H_0z         21.2815   38.6983    6.6223 hi      1  lig       0.417509
     37 H_10         28.9810   43.1378    4.0530 hj      1  lig       0.359147
     38 H_11         27.3552   41.8253    1.0198 hk      1  lig       0.083715
     39 H_12         28.8716   41.8497    1.8984 hl      1  lig       0.083715
     40 H_13         28.2274   43.3362    1.1878 hm      1  lig       0.083715
     41 H_14         28.2606   44.4661    3.3879 hq      1  lig       0.359147
     42 H_15         15.9304   38.9893    4.9002 hr      1  lig       0.458184
     43 H_16         27.6643   43.8132    4.7674 ht      1  lig       0.359147
     44 H_17         20.2212   42.3647    3.8785 hu      1  lig       0.159453
@<TRIPOS>BOND
     1     1     2    1
     2     1     6    1
     3     1    16    1
     4     2     3    1
     5     2    24    1
     6     2    25    1
     7     3     4    1
     8     3    26    1
     9     3    27    1
    10     4     5    1
    11     4    22    1
    12     4    23    1
    13     5     6    1
    14     5    28    1
    15     5    29    1
    16     6    30    1
    17     6    31    1
    18     7     8    2
    19     7    12    1
    20     7    13    1
    21     8     9    1
    22     8    20    1
    23     9    10    2
    24     9    19    1
    25    10    11    1
    26    10    32    1
    27    11    12    2
    28    11    33    1
    29    12    34    1
    30    13    14    2
    31    13    18    1
    32    14    15    1
    33    14    44    1
    34    15    16    2
    35    16    17    1
    36    17    18    2
    37    18    21    1
    38    21    35    1
    39    21    36    1
    40    22    37    1
    41    22    41    1
    42    22    43    1
    43    23    38    1
    44    23    39    1
    45    23    40    1
    46    33    42    1
