@<TRIPOS>MOLECULE
lig
  46   48 0 0 0
SMALL
NO_CHARGES


@<TRIPOS>ATOM
      1 N_00         24.5912   41.4412    2.9628 n0      1  lig      -0.409981
      2 C_01         25.7880   40.5839    3.0947 c4      1  lig      -0.050838
      3 C_02         26.8827   41.4187    3.7819 c5      1  lig      -0.036733
      4 C_03         27.2037   42.7296    3.0208 c6      1  lig       0.357174
      5 C_04         25.8914   43.4984    2.7286 c7      1  lig      -0.025609
      6 C_05         24.8146   42.6072    2.0858 c8      1  lig      -0.044895
      7 C_06         19.6867   40.5350    5.5377 c9      1  lig      -0.032283
      8 C_07         19.4006   40.8261    6.8758 cb      1  lig      -0.014698
      9 C_08         18.1051   40.6078    7.3743 ci      1  lig       0.127645
     10 C_09         17.1087   40.0858    6.5430 cj      1  lig      -0.195880
     11 C_0a         17.4034   39.7629    5.2225 ck      1  lig      -0.175349
     12 C_0b         18.6796   40.0169    4.7228 cm      1  lig      -0.132749
     13 C_0c         21.0271   40.7724    4.9478 cn      1  lig      -0.012075
     14 C_0d         21.1661   41.8108    4.0707 co      1  lig       0.008761
     15 N_0e         22.3393   42.0621    3.4383 ng      1  lig      -0.499752
     16 C_0f         23.4048   41.2182    3.6484 cq      1  lig       0.675024
     17 N_0g         23.3416   40.1990    4.5483 nr      1  lig      -0.513524
     18 C_0h         22.1565   39.9549    5.1862 cr      1  lig       0.478185
     19 C_0i         17.7286   41.0151    8.7870 cs      1  lig      -0.154427
     20 Cl0j         20.6167   41.4952    7.9158 a0      1  lig      -0.124047
     21 N_0k         22.0942   38.8874    6.0945 nw      1  lig      -0.909981
     22 N_0l         28.0568   43.6104    3.9321 nA      1  lig      -0.598052
     23 C_0m         27.9976   42.4511    1.7261 ct      1  lig      -0.241401
     24 H_0n         26.0793   40.2606    2.0975 h0      1  lig       0.093845
     25 H_0o         25.5374   39.6817    3.6751 h6      1  lig       0.093845
     26 H_0p         26.5304   41.6654    4.7796 h7      1  lig       0.035977
     27 H_0q         27.7778   40.8079    3.8955 h8      1  lig       0.035977
     28 H_0r         25.4751   43.9072    3.6483 h9      1  lig       0.027790
     29 H_0s         26.0824   44.3546    2.0811 hb      1  lig       0.027790
     30 H_0t         25.1238   42.2418    1.1104 hd      1  lig       0.094640
     31 H_0u         23.8669   43.1548    1.9503 he      1  lig       0.094640
     32 H_0v         16.0936   39.9544    6.9083 hf      1  lig       0.167344
     33 H_0w         16.6326   39.3650    4.5781 hg      1  lig       0.173736
     34 H_0x         18.8818   39.7600    3.6910 hh      1  lig       0.143488
     35 H_0y         28.9250   43.1640    4.1754 hi      1  lig       0.357592
     36 H_0z         28.9465   41.9493    1.9173 hj      1  lig       0.084862
     37 H_10         28.2119   43.3578    1.1601 hk      1  lig       0.084862
     38 H_11         27.4467   41.7986    1.0477 hl      1  lig       0.084862
     39 H_12         28.2553   44.4865    3.4578 hm      1  lig       0.357592
     40 H_13         22.9522   38.3892    6.3063 hq      1  lig       0.424835
     41 H_14         20.3269   42.4788    3.8471 hr      1  lig       0.165227
     42 H_15         21.2395   38.7067    6.6030 ht      1  lig       0.424835
     43 H_16         16.6613   40.8809    8.9516 hu      1  lig       0.064718
     44 H_17         17.9571   42.0730    8.9359 hv      1  lig       0.064718
     45 H_18         18.2961   40.4417    9.5254 hy      1  lig       0.064718
     46 H_19         27.5603   43.8225    4.7842 hz      1  lig       0.357592
@<TRIPOS>BOND
     1     1     2    1
     2     1     6    1
     3     1    16    1
     4     2     3    1
     5     2    24    1
     6     2    25    1
     7     3     4    1
     8     3    26    1
     9     3    27    1
    10     4     5    1
    11     4    22    1
    12     4    23    1
    13     5     6    1
    14     5    28    1
    15     5    29    1
    16     6    30    1
    17     6    31    1
    18     7     8    2
    19     7    12    1
    20     7    13    1
    21     8     9    1
    22     8    20    1
    23     9    10    2
    24     9    19    1
    25    10    11    1
    26    10    32    1
    27    11    12    2
    28    11    33    1
    29    12    34    1
    30    13    14    2
    31    13    18    1
    32    14    15    1
    33    14    41    1
    34    15    16    2
    35    16    17    1
    36    17    18    2
    37    18    21    1
    38    19    43    1
    39    19    44    1
    40    19    45    1
    41    21    40    1
    42    21    42    1
    43    22    35    1
    44    22    39    1
    45    22    46    1
    46    23    36    1
    47    23    37    1
    48    23    38    1
