@<TRIPOS>MOLECULE
lig
  47   49 0 0 0
SMALL
NO_CHARGES


@<TRIPOS>ATOM
      1 N_00         24.5435   41.5792    3.1196 n0      1  lig      -0.305774
      2 C_01         25.5708   40.5464    2.8814 c4      1  lig      -0.111787
      3 C_02         26.9534   40.9118    3.4847 c5      1  lig      -0.049248
      4 C_03         27.4593   42.3280    3.1172 c6      1  lig       0.387595
      5 C_04         26.2942   43.3330    3.1459 c7      1  lig      -0.098859
      6 C_05         24.9972   42.8297    2.5111 c8      1  lig      -0.173324
      7 C_06         19.6889   40.5703    5.7978 c9      1  lig       0.061075
      8 C_07         19.5320   40.8408    7.1712 cb      1  lig       0.044050
      9 C_08         18.3134   40.5554    7.8069 ci      1  lig      -0.006871
     10 C_09         17.2570   40.0202    7.0752 cj      1  lig      -0.043367
     11 C_0a         17.4064   39.7521    5.7172 ck      1  lig      -0.172855
     12 C_0b         18.6163   40.0206    5.0855 cm      1  lig      -0.173517
     13 C_0c         20.9719   40.8186    5.0870 cn      1  lig       0.126173
     14 N_0d         20.9540   41.8118    4.1678 ng      1  lig      -0.372922
     15 C_0e         22.0756   42.0762    3.4406 co      1  lig       0.065766
     16 C_0f         23.2791   41.3456    3.6789 cq      1  lig       0.282915
     17 N_0g         23.2692   40.3395    4.6027 nr      1  lig      -0.288424
     18 C_0h         22.1341   40.0692    5.2876 cr      1  lig       0.402394
     19 Cl0i         18.0784   40.8427    9.4962 a0      1  lig      -0.063897
     20 Cl0j         20.8203   41.5878    8.0632 a1      1  lig      -0.105361
     21 N_0k         22.1669   39.0114    6.1899 nw      1  lig      -0.905955
     22 C_0l         27.9555   42.2509    1.6614 cs      1  lig      -0.167380
     23 N_0m         28.6011   42.7994    3.9160 nA      1  lig      -0.673399
     24 C_0n         21.8219   43.0847    2.3396 ct      1  lig       0.640200
     25 N_0o         22.3538   42.8247    1.1534 nB      1  lig      -0.830633
     26 O_0p         21.0327   44.0184    2.4666 o0      1  lig      -0.594317
     27 H_0q         25.2579   39.5917    3.2986 h0      1  lig       0.114802
     28 H_0r         25.6526   40.3775    1.8069 h6      1  lig       0.114802
     29 H_0s         27.6770   40.1611    3.1633 h7      1  lig       0.025719
     30 H_0t         26.8956   40.7970    4.5696 h8      1  lig       0.025719
     31 H_0u         26.5440   44.2572    2.6300 h9      1  lig       0.053900
     32 H_0v         26.0824   43.6211    4.1756 hb      1  lig       0.053900
     33 H_0w         24.2748   43.6201    2.6763 hd      1  lig       0.161056
     34 H_0x         25.1052   42.7110    1.4315 he      1  lig       0.161056
     35 H_0y         16.3185   39.7955    7.5604 hf      1  lig       0.143644
     36 H_0z         16.5894   39.3207    5.1563 hg      1  lig       0.174590
     37 H_10         18.7190   39.7914    4.0335 hh      1  lig       0.178734
     38 H_11         23.0375   38.5148    6.3535 hi      1  lig       0.411916
     39 H_12         21.3404   38.7890    6.7207 hj      1  lig       0.411916
     40 H_13         22.1176   43.4003    0.3593 hk      1  lig       0.380706
     41 H_14         22.9929   42.0544    1.0175 hl      1  lig       0.380706
     42 H_15         28.8653   43.7258    3.6125 hm      1  lig       0.378457
     43 H_16         28.3416   42.8266    4.8917 hq      1  lig       0.378457
     44 H_17         29.3810   42.1696    3.7926 hr      1  lig       0.378457
     45 H_18         28.3665   43.1464    1.1723 ht      1  lig       0.066395
     46 H_19         27.1612   41.8402    1.0380 hu      1  lig       0.066395
     47 H_1a         28.6769   41.4383    1.5758 hv      1  lig       0.066395
@<TRIPOS>BOND
     1     1     2    1
     2     1     6    1
     3     1    16    1
     4     2     3    1
     5     2    27    1
     6     2    28    1
     7     3     4    1
     8     3    29    1
     9     3    30    1
    10     4     5    1
    11     4    22    1
    12     4    23    1
    13     5     6    1
    14     5    31    1
    15     5    32    1
    16     6    33    1
    17     6    34    1
    18     7     8    2
    19     7    12    1
    20     7    13    1
    21     8     9    1
    22     8    20    1
    23     9    10    2
    24     9    19    1
    25    10    11    1
    26    10    35    1
    27    11    12    2
    28    11    36    1
    29    12    37    1
    30    13    14    2
    31    13    18    1
    32    14    15    1
    33    15    16    2
    34    15    24    1
    35    16    17    1
    36    17    18    2
    37    18    21    1
    38    21    38    1
    39    21    39    1
    40    22    45    1
    41    22    46    1
    42    22    47    1
    43    23    42    1
    44    23    43    1
    45    23    44    1
    46    24    25    1
    47    24    26    2
    48    25    40    1
    49    25    41    1
