@<TRIPOS>MOLECULE
lig
  43   45 0 0 0
SMALL
NO_CHARGES


@<TRIPOS>ATOM
      1 N_00         24.5722   41.4017    2.9497 n0      1  lig      -0.376458
      2 C_01         24.8073   42.5904    2.1071 c4      1  lig      -0.130689
      3 C_02         25.8882   43.4955    2.7352 c5      1  lig      -0.042911
      4 C_03         27.1844   42.7081    3.0173 c6      1  lig       0.387257
      5 C_04         26.8880   41.4066    3.7995 c7      1  lig      -0.046043
      6 C_05         25.7788   40.5760    3.1172 c8      1  lig      -0.070500
      7 C_06         19.6941   40.5278    5.5181 c9      1  lig       0.017145
      8 C_07         19.4037   40.8004    6.8683 cb      1  lig       0.054262
      9 C_08         18.1005   40.6055    7.3543 ci      1  lig       0.000154
     10 C_09         17.1024   40.1270    6.5070 cj      1  lig      -0.069727
     11 C_0a         17.3911   39.8460    5.1764 ck      1  lig      -0.130758
     12 C_0b         18.6755   40.0507    4.6853 cm      1  lig      -0.214211
     13 C_0c         21.0420   40.7304    4.9310 cn      1  lig       0.364755
     14 N_0d         21.0963   41.7469    4.0374 ng      1  lig      -0.495843
     15 C_0e         22.2680   41.9826    3.4209 co      1  lig       0.005816
     16 C_0f         23.3992   41.2013    3.6601 cq      1  lig       0.268147
     17 N_0g         23.3400   40.1644    4.5484 nr      1  lig      -0.211411
     18 C_0h         22.1710   39.9440    5.2012 cr      1  lig       0.208515
     19 Cl0i         17.6893   40.9440    9.0001 a0      1  lig      -0.069925
     20 Cl0j         20.6364   41.3873    7.9395 a1      1  lig      -0.120078
     21 N_0k         22.1416   38.8888    6.1136 nw      1  lig      -0.837220
     22 N_0l         28.0989   43.5943    3.8660 nA      1  lig      -0.623216
     23 C_0m         27.9436   42.4192    1.7238 cs      1  lig      -0.191914
     24 H_0n         25.0503   42.2737    1.0942 h0      1  lig       0.127945
     25 H_0o         23.9119   43.1848    1.9547 h6      1  lig       0.127945
     26 H_0p         25.4859   43.9463    3.6444 h7      1  lig       0.035164
     27 H_0q         26.0860   44.3382    2.0668 h8      1  lig       0.035164
     28 H_0r         26.5729   41.6227    4.8160 h9      1  lig       0.025678
     29 H_0s         27.7863   40.7975    3.9041 hb      1  lig       0.025678
     30 H_0t         26.0871   40.2123    2.1375 hd      1  lig       0.102880
     31 H_0u         25.5582   39.6711    3.6882 he      1  lig       0.102880
     32 H_0v         16.0966   39.9833    6.8773 hf      1  lig       0.147106
     33 H_0w         16.6181   39.4786    4.5197 hg      1  lig       0.165290
     34 H_0x         18.8774   39.8300    3.6455 hh      1  lig       0.191640
     35 H_0y         22.2396   42.8343    2.7649 hi      1  lig       0.140218
     36 H_0z         21.2965   38.6913    6.6248 hj      1  lig       0.390020
     37 H_10         22.9864   38.3512    6.2928 hk      1  lig       0.390020
     38 H_11         28.9778   43.1202    4.0164 hl      1  lig       0.366116
     39 H_12         28.2718   44.4626    3.3564 hm      1  lig       0.366116
     40 H_13         27.3240   41.8322    1.0495 hq      1  lig       0.072959
     41 H_14         28.8549   41.8535    1.9210 hr      1  lig       0.072959
     42 H_15         28.2173   43.3396    1.2082 ht      1  lig       0.072959
     43 H_16         27.6680   43.8147    4.7509 hu      1  lig       0.366116
@<TRIPOS>BOND
     1     1     2    1
     2     1     6    1
     3     1    16    1
     4     2     3    1
     5     2    24    1
     6     2    25    1
     7     3     4    1
     8     3    26    1
     9     3    27    1
    10     4     5    1
    11     4    22    1
    12     4    23    1
    13     5     6    1
    14     5    28    1
    15     5    29    1
    16     6    30    1
    17     6    31    1
    18     7     8    2
    19     7    12    1
    20     7    13    1
    21     8     9    1
    22     8    20    1
    23     9    10    2
    24     9    19    1
    25    10    11    1
    26    10    32    1
    27    11    12    2
    28    11    33    1
    29    12    34    1
    30    13    14    2
    31    13    18    1
    32    14    15    1
    33    15    16    2
    34    15    35    1
    35    16    17    1
    36    17    18    2
    37    18    21    1
    38    21    36    1
    39    21    37    1
    40    22    38    1
    41    22    39    1
    42    22    43    1
    43    23    40    1
    44    23    41    1
    45    23    42    1
