@<TRIPOS>MOLECULE
lig
  43   45 0 0 0
SMALL
NO_CHARGES


@<TRIPOS>ATOM
      1 N_00         24.6991   41.2880    3.1084 n0      1  lig      -0.422633
      2 C_01         24.7544   42.3659    2.0828 c4      1  lig      -0.038718
      3 C_02         26.0819   43.1849    2.0777 c5      1  lig       0.077891
      4 N_03         27.2540   42.3327    2.4127 ng      1  lig      -0.129705
      5 C_04         27.1216   41.4947    3.6356 c6      1  lig       0.087232
      6 C_05         25.9265   40.5256    3.4438 c7      1  lig      -0.067831
      7 C_06         19.7062   40.2071    5.4923 c8      1  lig       0.009301
      8 C_07         19.4758   40.5221    6.8291 c9      1  lig       0.034770
      9 C_08         18.1971   40.3798    7.3797 cb      1  lig       0.003776
     10 C_09         17.1161   39.9866    6.5815 ci      1  lig      -0.050358
     11 C_0a         17.3356   39.6937    5.2208 cj      1  lig      -0.189374
     12 C_0b         18.6213   39.8380    4.6722 ck      1  lig      -0.137401
     13 C_0c         21.0642   40.4372    4.9252 cm      1  lig      -0.020476
     14 C_0d         21.1830   41.4378    3.9557 cn      1  lig       0.006948
     15 N_0e         22.3711   41.6614    3.3749 nr      1  lig      -0.494378
     16 C_0f         23.5007   40.9783    3.7010 co      1  lig       0.668244
     17 N_0g         23.3990   40.0008    4.6377 nw      1  lig      -0.495454
     18 C_0h         22.2307   39.6970    5.2474 cq      1  lig       0.443884
     19 Cl0i         17.9053   40.7260    9.0476 a0      1  lig      -0.061950
     20 Cl0j         20.7793   41.0806    7.8271 a1      1  lig      -0.096734
     21 N_0k         22.2243   38.6162    6.2289 nA      1  lig      -0.874923
     22 C_0l         26.2804   43.8713    0.7588 cr      1  lig      -0.221511
     23 C_0m         28.3857   40.7219    3.8699 cs      1  lig      -0.255488
     24 H_0n         23.9260   43.0695    2.1829 h0      1  lig       0.109657
     25 H_0o         24.6132   41.8870    1.1126 h6      1  lig       0.109657
     26 H_0p         26.0127   43.9714    2.8315 h7      1  lig       0.101568
     27 H_0q         28.0684   42.9226    2.5058 h8      1  lig       0.251187
     28 H_0r         26.9647   42.1292    4.5101 h9      1  lig       0.113230
     29 H_0s         25.8054   39.9385    4.3559 hb      1  lig       0.112851
     30 H_0t         26.1227   39.8070    2.6470 hd      1  lig       0.112851
     31 H_0u         16.1290   39.8934    7.0111 he      1  lig       0.146248
     32 H_0v         16.5096   39.3856    4.5953 hf      1  lig       0.179718
     33 H_0w         18.7713   39.6322    3.6215 hg      1  lig       0.154215
     34 H_0x         20.3447   42.0392    3.6354 hh      1  lig       0.167487
     35 H_0y         21.3665   38.3671    6.7002 hi      1  lig       0.422084
     36 H_0z         23.0777   38.1175    6.4364 hj      1  lig       0.422084
     37 H_10         25.4101   44.4885    0.5358 hk      1  lig       0.090620
     38 H_11         26.4061   43.1238   -0.0245 hl      1  lig       0.090620
     39 H_12         27.1693   44.5003    0.8067 hm      1  lig       0.090620
     40 H_13         28.2778   40.1122    4.7670 hq      1  lig       0.099668
     41 H_14         29.2167   41.4153    3.9996 hr      1  lig       0.099668
     42 H_15         28.5812   40.0767    3.0134 ht      1  lig       0.099668
     43 H_16         27.3969   41.7025    1.6369 hu      1  lig       0.251187
@<TRIPOS>BOND
     1     1     2    1
     2     1     6    1
     3     1    16    1
     4     2     3    1
     5     2    24    1
     6     2    25    1
     7     3     4    1
     8     3    22    1
     9     3    26    1
    10     4     5    1
    11     4    27    1
    12     4    43    1
    13     5     6    1
    14     5    23    1
    15     5    28    1
    16     6    29    1
    17     6    30    1
    18     7     8    2
    19     7    12    1
    20     7    13    1
    21     8     9    1
    22     8    20    1
    23     9    10    2
    24     9    19    1
    25    10    11    1
    26    10    31    1
    27    11    12    2
    28    11    32    1
    29    12    33    1
    30    13    14    2
    31    13    18    1
    32    14    15    1
    33    14    34    1
    34    15    16    2
    35    16    17    1
    36    17    18    2
    37    18    21    1
    38    21    35    1
    39    21    36    1
    40    22    37    1
    41    22    38    1
    42    22    39    1
    43    23    40    1
    44    23    41    1
    45    23    42    1
