@<TRIPOS>MOLECULE
lig
  45   47 0 0 0
SMALL
NO_CHARGES


@<TRIPOS>ATOM
      1 N_00          6.6811   10.1110   19.9576 n0      1  lig      -0.892961
      2 C_01          5.3719    9.8748   20.0349 c4      1  lig       0.705104
      3 O_02          4.6126   10.6119   20.6580 o0      1  lig      -0.527028
      4 N_03          5.0190    8.7723   19.3534 ng      1  lig      -0.327577
      5 C_04          3.7291    8.1886   19.2112 c5      1  lig       0.173177
      6 C_05          2.5728    8.4910   19.9500 c6      1  lig      -0.092617
      7 C_06          1.4457    7.7565   19.6078 c7      1  lig       0.014017
      8 C_07          0.1212    7.8238   20.2165 c8      1  lig       0.017284
      9 C_08         -0.2671    8.9576   20.9467 c9      1  lig      -0.112592
     10 C_09         -1.5157    9.0259   21.5628 cb      1  lig      -0.226320
     11 C_0a         -2.3969    7.9516   21.4664 ci      1  lig      -0.110463
     12 C_0b         -2.0262    6.8138   20.7531 cj      1  lig       0.177340
     13 F_0c         -2.8759    5.7632   20.6661 f0      1  lig      -0.178075
     14 C_0d         -0.7809    6.7548   20.1286 ck      1  lig      -0.088898
     15 S_0e          1.8307    6.6604   18.3049 s0      1  lig      -0.115426
     16 C_0f          3.5021    7.1784   18.2691 cm      1  lig      -0.233934
     17 C_0g          4.4842    6.6388   17.3047 cn      1  lig       0.545537
     18 O_0h          5.6199    7.1040   17.2140 o1      1  lig      -0.560500
     19 N_0i          4.0654    5.6374   16.5137 nr      1  lig      -0.466204
     20 C_0j          4.8123    5.1453   15.3548 co      1  lig       0.058491
     21 C_0k          4.8397    3.6083   15.3094 cq      1  lig      -0.060772
     22 C_0l          5.5246    3.1030   14.0243 cr      1  lig      -0.029563
     23 C_0m          4.8913    3.7098   12.7577 cs      1  lig      -0.027400
     24 N_0n          4.8954    5.2156   12.8564 nw      1  lig      -0.133987
     25 C_0o          4.2131    5.7660   14.0823 ct      1  lig      -0.075785
     26 H_0p          7.0595   10.9189   20.4301 h0      1  lig       0.397519
     27 H_0q          7.2894    9.4950   19.4398 h6      1  lig       0.397519
     28 H_0r          5.7549    8.3003   18.8485 h7      1  lig       0.292670
     29 H_0s          2.5447    9.2273   20.7379 h8      1  lig       0.135615
     30 H_0t          0.3928    9.8068   21.0410 h9      1  lig       0.164149
     31 H_0u         -1.7987    9.9120   22.1117 hb      1  lig       0.186793
     32 H_0v         -3.3657    8.0000   21.9414 hd      1  lig       0.167121
     33 H_0w         -0.5191    5.8630   19.5788 he      1  lig       0.147642
     34 H_0x          3.1695    5.2382   16.7558 hf      1  lig       0.328637
     35 H_0y          5.8003    5.5794   15.5134 hg      1  lig       0.096417
     36 H_0z          5.3996    3.2477   16.1734 hh      1  lig       0.068658
     37 H_10          3.8340    3.1989   15.4130 hi      1  lig       0.068658
     38 H_11          6.5866    3.3487   14.0528 hj      1  lig       0.060221
     39 H_12          5.4701    2.0156   13.9754 hk      1  lig       0.060221
     40 H_13          5.4371    3.3949   11.8672 hl      1  lig       0.098682
     41 H_14          3.8657    3.3573   12.6450 hm      1  lig       0.098682
     42 H_15          5.8477    5.5514   12.8385 hq      1  lig       0.278300
     43 H_16          3.1375    5.5929   14.0344 hr      1  lig       0.121674
     44 H_17          4.3520    6.8477   14.1062 ht      1  lig       0.121674
     45 H_18          4.3996    5.5836   12.0537 hu      1  lig       0.278300
@<TRIPOS>BOND
     1     1     2    1
     2     1    26    1
     3     1    27    1
     4     2     3    2
     5     2     4    1
     6     4     5    1
     7     4    28    1
     8     5    16    2
     9     5     6    1
    10     6     7    2
    11     6    29    1
    12     7     8    1
    13     7    15    1
    14     8    14    1
    15     8     9    2
    16     9    10    1
    17     9    30    1
    18    10    11    2
    19    10    31    1
    20    11    12    1
    21    11    32    1
    22    12    13    1
    23    12    14    2
    24    14    33    1
    25    15    16    1
    26    16    17    1
    27    17    18    2
    28    17    19    1
    29    19    20    1
    30    19    34    1
    31    20    25    1
    32    20    21    1
    33    20    35    1
    34    21    22    1
    35    21    36    1
    36    21    37    1
    37    22    23    1
    38    22    38    1
    39    22    39    1
    40    23    24    1
    41    23    40    1
    42    23    41    1
    43    24    25    1
    44    24    42    1
    45    24    45    1
    46    25    43    1
    47    25    44    1
