@<TRIPOS>MOLECULE
lig
  45   47 0 0 0
SMALL
NO_CHARGES


@<TRIPOS>ATOM
      1 N_00          6.4852   10.1882   20.1942 n0      1  lig      -0.903973
      2 C_01          5.1964    9.8533   20.2457 c4      1  lig       0.730005
      3 O_02          4.4013   10.4451   20.9714 o0      1  lig      -0.518081
      4 N_03          4.9131    8.8295   19.4210 ng      1  lig      -0.274746
      5 C_04          3.7291    8.1886   19.2112 c5      1  lig       0.049584
      6 S_05          2.5728    8.4910   19.9500 s0      1  lig       0.067334
      7 C_06          1.4457    7.7565   19.6078 c6      1  lig      -0.000805
      8 C_07          0.1212    7.8238   20.2165 c7      1  lig       0.016708
      9 C_08         -0.2671    8.9576   20.9467 c8      1  lig      -0.070912
     10 C_09         -1.5157    9.0259   21.5628 c9      1  lig      -0.243927
     11 C_0a         -2.3969    7.9516   21.4664 cb      1  lig      -0.120900
     12 C_0b         -2.0262    6.8138   20.7531 ci      1  lig       0.196067
     13 F_0c         -2.8773    5.7645   20.6643 f0      1  lig      -0.185845
     14 C_0d         -0.7809    6.7548   20.1286 cj      1  lig      -0.158454
     15 C_0e          1.8307    6.6604   18.3049 ck      1  lig      -0.308853
     16 C_0f          3.5021    7.1784   18.2691 cm      1  lig      -0.057134
     17 C_0g          4.4842    6.6388   17.3047 cn      1  lig       0.508147
     18 O_0h          5.6199    7.1040   17.2140 o1      1  lig      -0.552912
     19 N_0i          4.0654    5.6374   16.5137 nr      1  lig      -0.494227
     20 C_0j          4.8123    5.1453   15.3548 co      1  lig       0.058302
     21 C_0k          4.8397    3.6083   15.3094 cq      1  lig      -0.064078
     22 C_0l          5.5246    3.1030   14.0243 cr      1  lig      -0.023067
     23 C_0m          4.8913    3.7098   12.7577 cs      1  lig      -0.034098
     24 N_0n          4.8954    5.2156   12.8564 nw      1  lig      -0.119530
     25 C_0o          4.2131    5.7660   14.0823 ct      1  lig      -0.091014
     26 H_0p          6.8141   10.9483   20.7714 h0      1  lig       0.404878
     27 H_0q          7.1262    9.6928   19.5935 h6      1  lig       0.404878
     28 H_0r          5.6857    8.4711   18.8793 h7      1  lig       0.280720
     29 H_0s          0.4039    9.7974   21.0488 h8      1  lig       0.140400
     30 H_0t         -1.7981    9.9106   22.1142 h9      1  lig       0.189828
     31 H_0u         -3.3657    7.9999   21.9416 hb      1  lig       0.163145
     32 H_0v         -0.5320    5.8656   19.5693 hd      1  lig       0.152502
     33 H_0w          1.1192    5.9875   17.8493 he      1  lig       0.163144
     34 H_0x          3.1659    5.2434   16.7498 hf      1  lig       0.336382
     35 H_0y          5.8000    5.5800   15.5135 hg      1  lig       0.102944
     36 H_0z          5.3998    3.2478   16.1734 hh      1  lig       0.067479
     37 H_10          3.8341    3.1987   15.4133 hi      1  lig       0.067479
     38 H_11          6.5865    3.3492   14.0527 hj      1  lig       0.060182
     39 H_12          5.4707    2.0156   13.9752 hk      1  lig       0.060182
     40 H_13          5.4372    3.3949   11.8672 hl      1  lig       0.099956
     41 H_14          3.8658    3.3573   12.6449 hm      1  lig       0.099956
     42 H_15          5.8482    5.5503   12.8400 hq      1  lig       0.275433
     43 H_16          3.1372    5.5944   14.0347 hr      1  lig       0.125744
     44 H_17          4.3530    6.8476   14.1066 ht      1  lig       0.125744
     45 H_18          4.4024    5.5839   12.0524 hu      1  lig       0.275433
@<TRIPOS>BOND
     1     1     2    1
     2     1    26    1
     3     1    27    1
     4     2     3    2
     5     2     4    1
     6     4     5    1
     7     4    28    1
     8     5    16    2
     9     5     6    1
    10     6     7    1
    11     7     8    1
    12     7    15    2
    13     8    14    1
    14     8     9    2
    15     9    10    1
    16     9    29    1
    17    10    11    2
    18    10    30    1
    19    11    12    1
    20    11    31    1
    21    12    13    1
    22    12    14    2
    23    14    32    1
    24    15    16    1
    25    15    33    1
    26    16    17    1
    27    17    18    2
    28    17    19    1
    29    19    20    1
    30    19    34    1
    31    20    25    1
    32    20    21    1
    33    20    35    1
    34    21    22    1
    35    21    36    1
    36    21    37    1
    37    22    23    1
    38    22    38    1
    39    22    39    1
    40    23    24    1
    41    23    40    1
    42    23    41    1
    43    24    25    1
    44    24    42    1
    45    24    45    1
    46    25    43    1
    47    25    44    1
