@<TRIPOS>MOLECULE
lig
  64   66 0 0 0
SMALL
NO_CHARGES


@<TRIPOS>ATOM
      1 C_00         11.2347    0.0649   -1.1305 c4      1  lig      -0.196464
      2 C_01         11.9378   -1.1877   -0.6212 c5      1  lig       0.674303
      3 O_02         11.3587   -2.2721   -0.6459 o0      1  lig      -0.604337
      4 N_03         13.1862   -1.0175   -0.1561 n0      1  lig      -0.608634
      5 C_04         14.1886   -2.0630    0.0707 c6      1  lig       0.067061
      6 C_05         15.6064   -1.6338   -0.3626 c7      1  lig      -0.035196
      7 C_06         15.6143   -0.9742   -1.7361 c8      1  lig      -0.146604
      8 C_07         15.1291   -1.6852   -2.8538 c9      1  lig      -0.084806
      9 C_08         15.0263   -1.0651   -4.1111 cb      1  lig       0.174437
     10 F_09         14.5260   -1.7525   -5.1647 f0      1  lig      -0.159105
     11 C_0a         15.4433    0.2689   -4.2678 ci      1  lig      -0.157352
     12 C_0b         15.9498    0.9807   -3.1620 cj      1  lig       0.163880
     13 F_0c         16.3534    2.2644   -3.3105 f1      1  lig      -0.155579
     14 C_0d         16.0376    0.3616   -1.8980 ck      1  lig      -0.142656
     15 C_0e         14.0883   -2.6824    1.4833 cm      1  lig      -0.037814
     16 O_0f         14.9759   -3.7716    1.6576 o1      1  lig      -0.598365
     17 C_0g         12.6536   -3.1428    1.7853 cn      1  lig       0.003266
     18 N_0h         12.5664   -3.8852    3.0535 ng      1  lig      -0.071318
     19 C_0i         11.4133   -4.8038    3.1178 co      1  lig      -0.001725
     20 C_0j         11.4707   -5.9434    2.1454 cq      1  lig      -0.003831
     21 C_0k         12.5683   -6.6992    1.8236 cr      1  lig      -0.021531
     22 C_0l         12.3083   -7.7265    0.8732 cs      1  lig      -0.125668
     23 C_0m         13.3404   -8.7070    0.3870 ct      1  lig      -0.152178
     24 C_0n         13.4482  -10.0184    1.2111 cw      1  lig       0.471587
     25 C_0o         13.9481   -9.6671    2.6255 cA      1  lig      -0.150702
     26 C_0p         12.0703  -10.6998    1.3312 cB      1  lig      -0.117015
     27 C_0q         14.4445  -11.0052    0.5677 cC      1  lig      -0.213049
     28 C_0r         10.9975   -7.7248    0.4693 cD      1  lig      -0.192910
     29 S_0s         10.0754   -6.4644    1.2382 s0      1  lig       0.001060
     30 C_0t         10.9045   -4.9998    4.5180 cE      1  lig      -0.348486
     31 C_0u         10.1365   -4.1189    3.5567 cF      1  lig      -0.085960
     32 H_0v         13.8782   -2.8377   -0.6316 h0      1  lig       0.158973
     33 H_0w         14.3638   -1.9263    2.2203 h6      1  lig       0.100524
     34 H_0x         10.2408   -0.1760   -1.5092 h7      1  lig       0.077872
     35 H_0y         11.1257    0.7929   -0.3261 h8      1  lig       0.077872
     36 H_0z         11.8059    0.5225   -1.9386 h9      1  lig       0.077872
     37 H_10         13.4626   -0.0755    0.0802 hb      1  lig       0.320579
     38 H_11         16.0377   -0.9483    0.3681 hd      1  lig       0.079443
     39 H_12         16.2734   -2.4948   -0.3870 he      1  lig       0.079443
     40 H_13         14.8284   -2.7178   -2.7534 hf      1  lig       0.133550
     41 H_14         15.3751    0.7465   -5.2340 hg      1  lig       0.181780
     42 H_15         16.4242    0.9159   -1.0550 hh      1  lig       0.154282
     43 H_16         15.8526   -3.4906    1.4405 hi      1  lig       0.432733
     44 H_17         12.2890   -3.7725    0.9725 hj      1  lig       0.115814
     45 H_18         11.9929   -2.2760    1.8284 hk      1  lig       0.115814
     46 H_19         12.5101   -3.2140    3.8067 hl      1  lig       0.261318
     47 H_1a         13.5575   -6.5431    2.2287 hm      1  lig       0.120535
     48 H_1b         13.1198   -8.9601   -0.6510 hq      1  lig       0.050773
     49 H_1c         14.3168   -8.2212    0.3550 hr      1  lig       0.050773
     50 H_1d         14.0305  -10.5559    3.2522 ht      1  lig       0.017621
     51 H_1e         14.9318   -9.1970    2.5956 hu      1  lig       0.017621
     52 H_1f         13.2694   -8.9761    3.1270 hv      1  lig       0.017621
     53 H_1g         12.1201  -11.5838    1.9679 hy      1  lig       0.009939
     54 H_1h         11.3299  -10.0263    1.7641 hz      1  lig       0.009939
     55 H_1i         11.6937  -11.0245    0.3611 hA      1  lig       0.009939
     56 H_1j         14.5848  -11.8882    1.1922 hB      1  lig       0.035931
     57 H_1k         14.0995  -11.3553   -0.4054 hC      1  lig       0.035931
     58 H_1l         15.4232  -10.5453    0.4269 hD      1  lig       0.035931
     59 H_1m         10.5188   -8.3861   -0.2382 hE      1  lig       0.240528
     60 H_1n         10.4728   -5.9691    4.7671 hF      1  lig       0.170020
     61 H_1o         11.4479   -4.5094    5.3257 hG      1  lig       0.170020
     62 H_1p         10.1714   -3.0414    3.7178 hH      1  lig       0.116691
     63 H_1q          9.1963   -4.5011    3.1592 hI      1  lig       0.116691
     64 H_1r         13.4151   -4.4195    3.1671 hJ      1  lig       0.261318
@<TRIPOS>BOND
     1     1     2    1
     2     1    34    1
     3     1    35    1
     4     1    36    1
     5     2     3    2
     6     2     4    1
     7     4     5    1
     8     4    37    1
     9     5    32    1
    10     5     6    1
    11     5    15    1
    12     6     7    1
    13     6    38    1
    14     6    39    1
    15     7    14    1
    16     7     8    2
    17     8     9    1
    18     8    40    1
    19     9    10    1
    20     9    11    2
    21    11    12    1
    22    11    41    1
    23    12    13    1
    24    12    14    2
    25    14    42    1
    26    15    33    1
    27    15    16    1
    28    15    17    1
    29    16    43    1
    30    17    18    1
    31    17    44    1
    32    17    45    1
    33    18    19    1
    34    18    46    1
    35    18    64    1
    36    19    31    1
    37    19    20    1
    38    19    30    1
    39    20    29    1
    40    20    21    2
    41    21    22    1
    42    21    47    1
    43    22    23    1
    44    22    28    2
    45    23    24    1
    46    23    48    1
    47    23    49    1
    48    24    25    1
    49    24    26    1
    50    24    27    1
    51    25    50    1
    52    25    51    1
    53    25    52    1
    54    26    53    1
    55    26    54    1
    56    26    55    1
    57    27    56    1
    58    27    57    1
    59    27    58    1
    60    28    29    1
    61    28    59    1
    62    30    31    1
    63    30    60    1
    64    30    61    1
    65    31    62    1
    66    31    63    1
