@<TRIPOS>MOLECULE
lig
  63   65 0 0 0
SMALL
NO_CHARGES


@<TRIPOS>ATOM
      1 C_00         11.0937    0.0699   -0.7630 c4      1  lig      -0.217557
      2 C_01         11.9749   -1.1727   -0.7150 c5      1  lig       0.670299
      3 O_02         11.5612   -2.2389   -1.1668 o0      1  lig      -0.608314
      4 N_03         13.1862   -1.0176   -0.1564 n0      1  lig      -0.599320
      5 C_04         14.1886   -2.0630    0.0707 c6      1  lig       0.053878
      6 C_05         15.6064   -1.6338   -0.3626 c7      1  lig      -0.031892
      7 C_06         15.6143   -0.9742   -1.7361 c8      1  lig      -0.136230
      8 C_07         15.1291   -1.6852   -2.8538 c9      1  lig      -0.095646
      9 C_08         15.0263   -1.0651   -4.1111 cb      1  lig       0.178018
     10 F_09         14.5261   -1.7526   -5.1647 f0      1  lig      -0.160345
     11 C_0a         15.4433    0.2689   -4.2678 ci      1  lig      -0.157349
     12 C_0b         15.9498    0.9807   -3.1620 cj      1  lig       0.163837
     13 F_0c         16.3534    2.2644   -3.3104 f1      1  lig      -0.156529
     14 C_0d         16.0376    0.3616   -1.8980 ck      1  lig      -0.144890
     15 C_0e         14.0883   -2.6824    1.4833 cm      1  lig      -0.021572
     16 O_0f         14.9758   -3.7716    1.6580 o1      1  lig      -0.624026
     17 C_0g         12.6536   -3.1428    1.7853 cn      1  lig      -0.077117
     18 N_0h         12.5664   -3.8852    3.0535 ng      1  lig      -0.032727
     19 C_0i         11.4133   -4.8038    3.1178 co      1  lig      -0.020801
     20 C_0j         11.4707   -5.9434    2.1454 cq      1  lig       0.027301
     21 N_0k         12.5683   -6.6992    1.8236 nr      1  lig      -0.017049
     22 C_0l         12.3083   -7.7265    0.8732 cr      1  lig      -0.076806
     23 C_0m         13.4148   -8.6476    0.4391 cs      1  lig      -0.210876
     24 C_0n         13.6773   -9.8648    1.3725 ct      1  lig       0.435123
     25 C_0o         14.9161  -10.6249    0.8595 cw      1  lig      -0.132948
     26 C_0p         13.9363   -9.4359    2.8334 cA      1  lig      -0.122519
     27 C_0q         12.4700  -10.8233    1.3395 cB      1  lig      -0.081461
     28 C_0r         10.9975   -7.7248    0.4693 cC      1  lig      -0.222318
     29 S_0s         10.0754   -6.4644    1.2382 s0      1  lig       0.073328
     30 C_0t         10.9045   -4.9998    4.5180 cD      1  lig      -0.293624
     31 C_0u         10.1365   -4.1189    3.5567 cE      1  lig      -0.132095
     32 H_0v         10.1438   -0.1479   -1.2523 h0      1  lig       0.083785
     33 H_0w         10.8837    0.4258    0.2461 h6      1  lig       0.083785
     34 H_0x         11.5879    0.8680   -1.3175 h7      1  lig       0.083785
     35 H_0y         13.4305   -0.0894    0.1577 h8      1  lig       0.318429
     36 H_0z         13.8782   -2.8378   -0.6315 h9      1  lig       0.172798
     37 H_10         16.0379   -0.9487    0.3682 hb      1  lig       0.071880
     38 H_11         16.2734   -2.4947   -0.3876 hd      1  lig       0.071880
     39 H_12         14.8283   -2.7178   -2.7534 he      1  lig       0.135869
     40 H_13         15.3750    0.7465   -5.2340 hf      1  lig       0.181337
     41 H_14         16.4242    0.9159   -1.0550 hg      1  lig       0.156653
     42 H_15         14.3635   -1.9263    2.2204 hh      1  lig       0.107463
     43 H_16         15.8649   -3.4503    1.6280 hi      1  lig       0.452490
     44 H_17         12.2898   -3.7700    0.9703 hj      1  lig       0.143381
     45 H_18         11.9970   -2.2737    1.8266 hk      1  lig       0.143381
     46 H_19         12.5260   -3.2177    3.8110 hl      1  lig       0.244896
     47 H_1a         13.2381   -8.9913   -0.5810 hm      1  lig       0.072156
     48 H_1b         14.3292   -8.0564    0.3738 hq      1  lig       0.072156
     49 H_1c         15.1162  -11.5135    1.4594 hr      1  lig       0.020863
     50 H_1d         14.7823  -10.9507   -0.1728 ht      1  lig       0.020863
     51 H_1e         15.8104  -10.0015    0.8940 hu      1  lig       0.020863
     52 H_1f         14.2022  -10.2918    3.4547 hv      1  lig      -0.005796
     53 H_1g         14.7567   -8.7201    2.8961 hy      1  lig      -0.005796
     54 H_1h         13.0581   -8.9754    3.2871 hz      1  lig      -0.005796
     55 H_1i         12.6460  -11.7042    1.9580 hA      1  lig       0.005607
     56 H_1j         11.5649  -10.3434    1.7110 hB      1  lig       0.005606
     57 H_1k         12.2643  -11.1722    0.3269 hC      1  lig       0.005607
     58 H_1l         10.5188   -8.3846   -0.2392 hD      1  lig       0.244938
     59 H_1m         10.4728   -5.9691    4.7672 hE      1  lig       0.175057
     60 H_1n         11.4479   -4.5094    5.3257 hF      1  lig       0.175057
     61 H_1o         10.1714   -3.0414    3.7178 hG      1  lig       0.137067
     62 H_1p          9.1963   -4.5011    3.1592 hH      1  lig       0.137067
     63 H_1q         13.4138   -4.4242    3.1523 hI      1  lig       0.244896
@<TRIPOS>BOND
     1     1     2    1
     2     1    32    1
     3     1    33    1
     4     1    34    1
     5     2     3    2
     6     2     4    1
     7     4     5    1
     8     4    35    1
     9     5     6    1
    10     5    15    1
    11     5    36    1
    12     6     7    1
    13     6    37    1
    14     6    38    1
    15     7    14    1
    16     7     8    2
    17     8     9    1
    18     8    39    1
    19     9    10    1
    20     9    11    2
    21    11    12    1
    22    11    40    1
    23    12    13    1
    24    12    14    2
    25    14    41    1
    26    15    16    1
    27    15    17    1
    28    15    42    1
    29    16    43    1
    30    17    18    1
    31    17    44    1
    32    17    45    1
    33    18    19    1
    34    18    46    1
    35    18    63    1
    36    19    31    1
    37    19    20    1
    38    19    30    1
    39    20    29    1
    40    20    21    2
    41    21    22    1
    42    22    23    1
    43    22    28    2
    44    23    24    1
    45    23    47    1
    46    23    48    1
    47    24    25    1
    48    24    26    1
    49    24    27    1
    50    25    49    1
    51    25    50    1
    52    25    51    1
    53    26    52    1
    54    26    53    1
    55    26    54    1
    56    27    55    1
    57    27    56    1
    58    27    57    1
    59    28    29    1
    60    28    58    1
    61    30    31    1
    62    30    59    1
    63    30    60    1
    64    31    61    1
    65    31    62    1
