@<TRIPOS>MOLECULE
lig
  64   66 0 0 0
SMALL
NO_CHARGES


@<TRIPOS>ATOM
      1 C_00         11.1593    0.1044   -0.9062 c4      1  lig      -0.202753
      2 C_01         12.0339   -1.1418   -0.8346 c5      1  lig       0.643081
      3 O_02         11.6670   -2.1836   -1.3748 o0      1  lig      -0.597670
      4 N_03         13.1862   -1.0175   -0.1561 n0      1  lig      -0.573895
      5 C_04         14.1886   -2.0630    0.0707 c6      1  lig       0.086581
      6 C_05         15.6064   -1.6338   -0.3626 c7      1  lig      -0.025816
      7 C_06         15.6143   -0.9742   -1.7361 c8      1  lig      -0.144968
      8 C_07         15.1291   -1.6852   -2.8538 c9      1  lig      -0.088136
      9 C_08         15.0263   -1.0651   -4.1111 cb      1  lig       0.173664
     10 F_09         14.5260   -1.7525   -5.1647 f0      1  lig      -0.159629
     11 C_0a         15.4433    0.2689   -4.2678 ci      1  lig      -0.152445
     12 C_0b         15.9498    0.9807   -3.1620 cj      1  lig       0.159572
     13 F_0c         16.3534    2.2644   -3.3105 f1      1  lig      -0.155474
     14 C_0d         16.0376    0.3616   -1.8980 ck      1  lig      -0.138619
     15 C_0e         14.0883   -2.6824    1.4833 cm      1  lig      -0.018996
     16 O_0f         14.9759   -3.7716    1.6575 o1      1  lig      -0.628126
     17 C_0g         12.6536   -3.1428    1.7853 cn      1  lig      -0.028975
     18 N_0h         12.5664   -3.8852    3.0535 ng      1  lig      -0.035696
     19 C_0i         11.4133   -4.8038    3.1178 co      1  lig       0.016355
     20 C_0j         11.4707   -5.9434    2.1454 cq      1  lig       0.016353
     21 C_0k         10.0754   -6.4644    1.2382 cr      1  lig      -0.073867
     22 C_0l         10.9975   -7.7248    0.4693 cs      1  lig      -0.206117
     23 C_0m         12.3083   -7.7265    0.8732 ct      1  lig      -0.031337
     24 C_0n         13.4023   -8.6462    0.4223 cw      1  lig      -0.066580
     25 C_0o         13.6321   -9.9207    1.2845 cA      1  lig       0.534629
     26 C_0p         14.0730   -9.4916    2.6975 cB      1  lig      -0.143019
     27 C_0q         12.3184  -10.7179    1.4064 cC      1  lig      -0.172689
     28 C_0r         14.7214  -10.8389    0.6891 cD      1  lig      -0.258237
     29 S_0s         12.5683   -6.6992    1.8236 s0      1  lig      -0.077735
     30 C_0t         10.9045   -4.9998    4.5180 cE      1  lig      -0.170612
     31 C_0u         10.1365   -4.1189    3.5567 cF      1  lig      -0.209895
     32 H_0v         10.2630   -0.0853   -1.4977 h0      1  lig       0.080672
     33 H_0w         10.8497    0.4090    0.0939 h6      1  lig       0.080672
     34 H_0x         11.7044    0.9283   -1.3676 h7      1  lig       0.080672
     35 H_0y         13.3790   -0.1170    0.2583 h8      1  lig       0.307486
     36 H_0z         13.8781   -2.8376   -0.6317 h9      1  lig       0.149586
     37 H_10         16.0376   -0.9482    0.3680 hb      1  lig       0.072271
     38 H_11         16.2734   -2.4947   -0.3869 hd      1  lig       0.072271
     39 H_12         14.8284   -2.7178   -2.7534 he      1  lig       0.133385
     40 H_13         15.3751    0.7465   -5.2340 hf      1  lig       0.180432
     41 H_14         16.4242    0.9159   -1.0550 hg      1  lig       0.154255
     42 H_15         14.3639   -1.9263    2.2202 hh      1  lig       0.098872
     43 H_16         15.8516   -3.4367    1.7830 hi      1  lig       0.444431
     44 H_17         12.2889   -3.7726    0.9727 hj      1  lig       0.114815
     45 H_18         11.9925   -2.2764    1.8290 hk      1  lig       0.114815
     46 H_19         12.5103   -3.2141    3.8069 hl      1  lig       0.255639
     47 H_1a          9.0961   -6.0129    1.3004 hm      1  lig       0.146514
     48 H_1b         10.5545   -8.4113   -0.2373 hq      1  lig       0.178480
     49 H_1c         13.1600   -8.9534   -0.5961 hr      1  lig       0.035327
     50 H_1d         14.3331   -8.0860    0.3255 ht      1  lig       0.035327
     51 H_1e         14.2066  -10.3530    3.3530 hu      1  lig       0.015786
     52 H_1f         15.0202   -8.9514    2.6740 hv      1  lig       0.015786
     53 H_1g         13.3335   -8.8385    3.1625 hy      1  lig       0.015786
     54 H_1h         12.4446  -11.5950    2.0421 hz      1  lig       0.017311
     55 H_1i         11.5219  -10.1128    1.8410 hA      1  lig       0.017311
     56 H_1j         11.9707  -11.0707    0.4358 hB      1  lig       0.017311
     57 H_1k         14.9256  -11.6858    1.3451 hC      1  lig       0.042865
     58 H_1l         14.4267  -11.2492   -0.2772 hD      1  lig       0.042865
     59 H_1m         15.6596  -10.3007    0.5497 hE      1  lig       0.042865
     60 H_1n         10.4728   -5.9691    4.7671 hF      1  lig       0.124681
     61 H_1o         11.4479   -4.5094    5.3257 hG      1  lig       0.124681
     62 H_1p         10.1714   -3.0414    3.7178 hH      1  lig       0.131121
     63 H_1q          9.1963   -4.5011    3.1592 hI      1  lig       0.131121
     64 H_1r         13.4151   -4.4194    3.1668 hJ      1  lig       0.255639
@<TRIPOS>BOND
     1     1     2    1
     2     1    32    1
     3     1    33    1
     4     1    34    1
     5     2     3    2
     6     2     4    1
     7     4     5    1
     8     4    35    1
     9     5     6    1
    10     5    15    1
    11     5    36    1
    12     6     7    1
    13     6    37    1
    14     6    38    1
    15     7    14    1
    16     7     8    2
    17     8     9    1
    18     8    39    1
    19     9    10    1
    20     9    11    2
    21    11    12    1
    22    11    40    1
    23    12    13    1
    24    12    14    2
    25    14    41    1
    26    15    16    1
    27    15    17    1
    28    15    42    1
    29    16    43    1
    30    17    18    1
    31    17    44    1
    32    17    45    1
    33    18    19    1
    34    18    46    1
    35    18    64    1
    36    19    31    1
    37    19    20    1
    38    19    30    1
    39    20    29    1
    40    20    21    2
    41    21    22    1
    42    21    47    1
    43    22    23    2
    44    22    48    1
    45    23    24    1
    46    23    29    1
    47    24    25    1
    48    24    49    1
    49    24    50    1
    50    25    26    1
    51    25    27    1
    52    25    28    1
    53    26    51    1
    54    26    52    1
    55    26    53    1
    56    27    54    1
    57    27    55    1
    58    27    56    1
    59    28    57    1
    60    28    58    1
    61    28    59    1
    62    30    31    1
    63    30    60    1
    64    30    61    1
    65    31    62    1
    66    31    63    1
