@<TRIPOS>MOLECULE
lig
  63   65 0 0 0
SMALL
NO_CHARGES


@<TRIPOS>ATOM
      1 C_00         11.1432    0.0953   -0.8756 c4      1  lig      -0.230403
      2 C_01         12.0093   -1.1557   -0.7887 c5      1  lig       0.676923
      3 O_02         11.6146   -2.2131   -1.2766 o0      1  lig      -0.612481
      4 N_03         13.1861   -1.0177   -0.1564 n0      1  lig      -0.596881
      5 C_04         14.1886   -2.0630    0.0707 c6      1  lig       0.052017
      6 C_05         15.6064   -1.6338   -0.3626 c7      1  lig      -0.021647
      7 C_06         15.6143   -0.9742   -1.7361 c8      1  lig      -0.133505
      8 C_07         15.1291   -1.6852   -2.8538 c9      1  lig      -0.093378
      9 C_08         15.0263   -1.0651   -4.1111 cb      1  lig       0.176541
     10 F_09         14.5261   -1.7526   -5.1647 f0      1  lig      -0.160522
     11 C_0a         15.4433    0.2689   -4.2678 ci      1  lig      -0.156876
     12 C_0b         15.9498    0.9807   -3.1620 cj      1  lig       0.164187
     13 F_0c         16.3534    2.2644   -3.3105 f1      1  lig      -0.156411
     14 C_0d         16.0376    0.3616   -1.8980 ck      1  lig      -0.147591
     15 C_0e         14.0883   -2.6824    1.4833 cm      1  lig       0.006599
     16 O_0f         14.9762   -3.7714    1.6577 o1      1  lig      -0.594168
     17 C_0g         12.6536   -3.1428    1.7853 cn      1  lig      -0.053855
     18 N_0h         12.5664   -3.8852    3.0535 ng      1  lig       0.004699
     19 C_0i         11.4133   -4.8038    3.1178 co      1  lig      -0.030847
     20 C_0j         11.4707   -5.9434    2.1454 cq      1  lig       0.037230
     21 C_0k         10.0754   -6.4644    1.2382 cr      1  lig      -0.224344
     22 S_0l         10.9975   -7.7248    0.4693 s0      1  lig       0.037389
     23 C_0m         12.3083   -7.7265    0.8732 cs      1  lig       0.081897
     24 C_0n         13.3231   -8.7108    0.3792 ct      1  lig      -0.251622
     25 C_0o         13.3476  -10.0798    1.1116 cw      1  lig       0.514575
     26 C_0p         13.9437   -9.8723    2.5171 cA      1  lig      -0.329644
     27 C_0q         11.9153  -10.6299    1.2610 cB      1  lig      -0.042834
     28 C_0r         14.2087  -11.1156    0.3595 cC      1  lig      -0.122855
     29 N_0s         12.5683   -6.6992    1.8236 nr      1  lig      -0.147567
     30 C_0t         10.9045   -4.9998    4.5180 cD      1  lig      -0.314390
     31 C_0u         10.1365   -4.1189    3.5567 cE      1  lig      -0.202747
     32 H_0v         10.2245   -0.1075   -1.4269 h0      1  lig       0.086567
     33 H_0w         10.8726    0.4400    0.1229 h6      1  lig       0.086567
     34 H_0x         11.6781    0.8961   -1.3868 h7      1  lig       0.086567
     35 H_0y         13.4004   -0.1049    0.2186 h8      1  lig       0.316574
     36 H_0z         13.8783   -2.8378   -0.6315 h9      1  lig       0.164958
     37 H_10         16.0380   -0.9487    0.3682 hb      1  lig       0.065009
     38 H_11         16.2734   -2.4947   -0.3876 hd      1  lig       0.065009
     39 H_12         14.8283   -2.7178   -2.7534 he      1  lig       0.134373
     40 H_13         15.3751    0.7465   -5.2340 hf      1  lig       0.180966
     41 H_14         16.4243    0.9159   -1.0550 hg      1  lig       0.156458
     42 H_15         14.3634   -1.9261    2.2202 hh      1  lig       0.092338
     43 H_16         15.8579   -3.4382    1.7364 hi      1  lig       0.437987
     44 H_17         12.2899   -3.7716    0.9714 hj      1  lig       0.138517
     45 H_18         11.9926   -2.2765    1.8292 hk      1  lig       0.138517
     46 H_19         12.5164   -3.2152    3.8080 hl      1  lig       0.219113
     47 H_1a          9.0745   -6.0590    1.2594 hm      1  lig       0.249987
     48 H_1b         13.1171   -8.8726   -0.6796 hq      1  lig       0.084224
     49 H_1c         14.3084   -8.2439    0.4174 hr      1  lig       0.084224
     50 H_1d         13.9599  -10.8031    3.0852 ht      1  lig       0.047206
     51 H_1e         14.9691   -9.5044    2.4654 hu      1  lig       0.047206
     52 H_1f         13.3640   -9.1488    3.0915 hv      1  lig       0.047206
     53 H_1g         11.9064  -11.5640    1.8238 hy      1  lig       0.000357
     54 H_1h         11.2703   -9.9252    1.7870 hz      1  lig       0.000357
     55 H_1i         11.4587  -10.8335    0.2923 hA      1  lig       0.000357
     56 H_1j         14.2877  -12.0467    0.9218 hB      1  lig       0.017726
     57 H_1k         13.7864  -11.3668   -0.6139 hC      1  lig       0.017726
     58 H_1l         15.2215  -10.7454    0.1963 hD      1  lig       0.017726
     59 H_1m         10.4728   -5.9691    4.7671 hE      1  lig       0.188017
     60 H_1n         11.4479   -4.5094    5.3257 hF      1  lig       0.188017
     61 H_1o         10.1714   -3.0414    3.7178 hG      1  lig       0.146771
     62 H_1p          9.1963   -4.5011    3.1592 hH      1  lig       0.146771
     63 H_1q         13.4140   -4.4221    3.1610 hI      1  lig       0.219113
@<TRIPOS>BOND
     1     1     2    1
     2     1    32    1
     3     1    33    1
     4     1    34    1
     5     2     3    2
     6     2     4    1
     7     4     5    1
     8     4    35    1
     9     5     6    1
    10     5    15    1
    11     5    36    1
    12     6     7    1
    13     6    37    1
    14     6    38    1
    15     7    14    1
    16     7     8    2
    17     8     9    1
    18     8    39    1
    19     9    10    1
    20     9    11    2
    21    11    12    1
    22    11    40    1
    23    12    13    1
    24    12    14    2
    25    14    41    1
    26    15    16    1
    27    15    17    1
    28    15    42    1
    29    16    43    1
    30    17    18    1
    31    17    44    1
    32    17    45    1
    33    18    19    1
    34    18    46    1
    35    18    63    1
    36    19    31    1
    37    19    20    1
    38    19    30    1
    39    20    29    1
    40    20    21    2
    41    21    22    1
    42    21    47    1
    43    22    23    1
    44    23    24    1
    45    23    29    2
    46    24    25    1
    47    24    48    1
    48    24    49    1
    49    25    26    1
    50    25    27    1
    51    25    28    1
    52    26    50    1
    53    26    51    1
    54    26    52    1
    55    27    53    1
    56    27    54    1
    57    27    55    1
    58    28    56    1
    59    28    57    1
    60    28    58    1
    61    30    31    1
    62    30    59    1
    63    30    60    1
    64    31    61    1
    65    31    62    1
