@<TRIPOS>MOLECULE
lig
  46   50 0 0 0
SMALL
NO_CHARGES


@<TRIPOS>ATOM
      1 C_00         -4.2567   -3.1043   13.5693 c4      1  lig       0.004336
      2 O_01         -3.8736   -2.3605   14.7157 o0      1  lig      -0.373880
      3 C_02         -2.5257   -2.1110   14.8169 c5      1  lig       0.166422
      4 C_03         -1.7458   -2.8699   15.6818 c6      1  lig      -0.125267
      5 C_04         -0.3904   -2.6103   15.8137 c7      1  lig      -0.319203
      6 C_05          0.2206   -1.5847   15.0868 c8      1  lig       0.002314
      7 N_06          1.6037   -1.3593   15.3213 n0      1  lig      -0.117517
      8 C_07          2.5361   -0.4486   14.7616 c9      1  lig       0.015900
      9 N_08          2.1814    0.3735   13.7239 ng      1  lig      -0.101371
     10 C_09          3.1138    1.2388   13.2174 cb      1  lig       0.019961
     11 C_0a          4.4183    1.2844   13.7022 ci      1  lig      -0.214715
     12 N_0b          4.7470    0.4870   14.7610 nr      1  lig       0.128045
     13 C_0c          5.8980    0.3781   15.4861 cj      1  lig      -0.364947
     14 C_0d          5.5879   -0.5236   16.5289 ck      1  lig       0.036415
     15 N_0e          4.3760   -1.0435   16.3736 nw      1  lig      -0.531505
     16 C_0f          3.8368   -0.3913   15.3236 cm      1  lig       0.415426
     17 C_0g          2.6373    2.1616   12.1208 cn      1  lig      -0.012741
     18 C_0h          1.3117    2.6428   12.1323 co      1  lig      -0.043834
     19 C_0i          0.8392    3.5282   11.1613 cq      1  lig      -0.414146
     20 C_0j          1.7204    3.9285   10.1646 cr      1  lig       0.511617
     21 N_0k          1.5424    4.7860    9.1151 nA      1  lig      -0.344243
     22 N_0l          2.7143    4.8525    8.3999 nB      1  lig      -0.202429
     23 N_0m          3.5904    4.0382    9.0000 nC      1  lig      -0.053491
     24 C_0n          3.0324    3.4382   10.1221 cs      1  lig       0.021378
     25 C_0o          3.5249    2.5426   11.0797 ct      1  lig      -0.287470
     26 C_0p         -0.5551   -0.8189   14.1919 cw      1  lig      -0.038734
     27 C_0q         -1.9443   -1.0883   14.0612 cA      1  lig       0.124168
     28 O_0r         -2.7530   -0.3558   13.2052 o1      1  lig      -0.222666
     29 C_0s         -2.2324    0.6450   12.3520 cB      1  lig      -0.120940
     30 H_0t         -5.3358   -3.2523   13.5866 h0      1  lig       0.065455
     31 H_0u         -3.7890   -4.0896   13.5590 h6      1  lig       0.065455
     32 H_0v         -4.0124   -2.5807   12.6437 h7      1  lig       0.065455
     33 H_0w         -2.1941   -3.6622   16.2628 h8      1  lig       0.158313
     34 H_0x          0.1988   -3.2066   16.4982 h9      1  lig       0.192016
     35 H_0y          1.9911   -1.9346   16.0533 hb      1  lig       0.221601
     36 H_0z          5.1807    1.9631   13.3423 hd      1  lig       0.189179
     37 H_10          6.7854    0.9491   15.2761 he      1  lig       0.230957
     38 H_11          6.2290   -0.7940   17.3521 hf      1  lig       0.167893
     39 H_12          0.6437    2.3379   12.9285 hg      1  lig       0.120257
     40 H_13         -0.1664    3.8943   11.1902 hh      1  lig       0.202029
     41 H_14          4.5235    3.9296    8.6264 hi      1  lig       0.291296
     42 H_15          4.5235    2.1590   11.0319 hj      1  lig       0.180164
     43 H_16         -0.1083   -0.0321   13.6247 hk      1  lig      -0.026870
     44 H_17         -3.0506    1.0729   11.7701 hl      1  lig       0.106639
     45 H_18         -1.5096    0.2343   11.6496 hm      1  lig       0.106639
     46 H_19         -1.7818    1.4502   12.9278 hq      1  lig       0.106639
@<TRIPOS>BOND
     1     1     2    1
     2     1    30    1
     3     1    31    1
     4     1    32    1
     5     2     3    1
     6     3     4    2
     7     3    27    1
     8     4     5    1
     9     4    33    1
    10     5     6    2
    11     5    34    1
    12     6     7    1
    13     6    26    1
    14     7     8    1
    15     7    35    1
    16     8     9    2
    17     8    16    1
    18     9    10    1
    19    10    11    2
    20    10    17    1
    21    11    12    1
    22    11    36    1
    23    12    13    1
    24    12    16    1
    25    13    14    2
    26    13    37    1
    27    14    15    1
    28    14    38    1
    29    15    16    2
    30    17    18    2
    31    17    25    1
    32    18    19    1
    33    18    39    1
    34    19    20    2
    35    19    40    1
    36    20    21    1
    37    20    24    1
    38    21    22    2
    39    22    23    1
    40    23    24    1
    41    23    41    1
    42    24    25    2
    43    25    42    1
    44    26    27    2
    45    26    43    1
    46    27    28    1
    47    28    29    1
    48    29    44    1
    49    29    45    1
    50    29    46    1
