@<TRIPOS>MOLECULE
lig
  53   58 0 0 0
SMALL
NO_CHARGES


@<TRIPOS>ATOM
      1 C_00         -5.7484   -4.1352   14.0916 c4      1  lig       0.136322
      2 C_01         -4.2467   -3.7965   14.1043 c5      1  lig      -0.121017
      3 C_02         -4.0046   -2.3867   14.6667 c6      1  lig       0.053393
      4 C_03         -4.7211   -2.2350   16.0203 c7      1  lig      -0.127941
      5 C_04         -6.1989   -2.6529   15.9141 c8      1  lig       0.124739
      6 O_05         -6.2949   -3.9790   15.3990 o0      1  lig      -0.406737
      7 C_06         -2.5163   -2.1019   14.8026 c9      1  lig       0.003448
      8 C_07         -1.7444   -2.8650   15.6773 cb      1  lig      -0.257693
      9 C_08         -0.3947   -2.6068   15.8182 ci      1  lig      -0.151669
     10 C_09          0.2168   -1.5789   15.0929 cj      1  lig       0.027606
     11 N_0a          1.5959   -1.3413   15.3408 n0      1  lig      -0.178807
     12 C_0b          2.5346   -0.4433   14.7633 ck      1  lig       0.073076
     13 N_0c          2.1825    0.3683   13.7202 ng      1  lig      -0.167620
     14 C_0d          3.1144    1.2372   13.2163 cm      1  lig       0.023793
     15 C_0e          4.4190    1.2837   13.7018 cn      1  lig      -0.232744
     16 N_0f          4.7465    0.4877   14.7594 nr      1  lig       0.152542
     17 C_0g          5.8977    0.3771   15.4862 co      1  lig      -0.361882
     18 C_0h          5.5879   -0.5237   16.5292 cq      1  lig       0.011626
     19 N_0i          4.3754   -1.0416   16.3746 nw      1  lig      -0.525530
     20 C_0j          3.8361   -0.3925   15.3266 cr      1  lig       0.403627
     21 C_0k          2.6384    2.1617   12.1197 cs      1  lig       0.007471
     22 C_0l          3.5461    2.6405   11.1618 ct      1  lig      -0.122103
     23 C_0m          3.1445    3.4623   10.1105 cw      1  lig      -0.266789
     24 C_0n          1.7985    3.8158   10.0184 cA      1  lig       0.065781
     25 C_0o          0.9907    4.5934    9.1205 cB      1  lig       0.065453
     26 N_0p         -0.2502    4.6054    9.5128 nA      1  lig      -0.441185
     27 N_0q         -0.3377    3.8946   10.6262 nB      1  lig      -0.105574
     28 C_0r          0.8856    3.3616   10.9945 cC      1  lig       0.072234
     29 C_0s          1.2735    2.5429   12.0624 cD      1  lig      -0.149383
     30 C_0t         -0.5534   -0.8155   14.1947 cE      1  lig      -0.076491
     31 C_0u         -1.9224   -1.0793   14.0569 cF      1  lig      -0.154490
     32 H_0v         -6.2805   -3.4837   13.3942 h0      1  lig       0.029450
     33 H_0w         -5.9038   -5.1578   13.7553 h6      1  lig       0.029450
     34 H_0x         -3.8408   -3.8755   13.0976 h7      1  lig       0.062587
     35 H_0y         -3.7264   -4.5315   14.7202 h8      1  lig       0.062587
     36 H_0z         -4.4085   -1.6510   13.9680 h9      1  lig       0.037348
     37 H_10         -4.6501   -1.2085   16.3760 hb      1  lig       0.064406
     38 H_11         -4.2346   -2.8646   16.7675 hd      1  lig       0.064406
     39 H_12         -6.7408   -1.9682   15.2574 he      1  lig       0.033047
     40 H_13         -6.6781   -2.6070   16.8893 hf      1  lig       0.033047
     41 H_14         -2.1988   -3.6577   16.2587 hg      1  lig       0.172486
     42 H_15          0.1892   -3.2031   16.5076 hh      1  lig       0.153570
     43 H_16          1.9651   -1.8647   16.1167 hi      1  lig       0.222409
     44 H_17          5.1809    1.9629   13.3422 hj      1  lig       0.189978
     45 H_18          6.7856    0.9487   15.2757 hk      1  lig       0.230617
     46 H_19          6.2292   -0.7937   17.3519 hl      1  lig       0.174482
     47 H_1a          4.5884    2.3469   11.2223 hm      1  lig       0.122795
     48 H_1b          3.8528    3.8060    9.3832 hq      1  lig       0.173334
     49 H_1c          1.3017    5.1139    8.2368 hr      1  lig       0.139612
     50 H_1d         -1.2272    3.7941   11.0903 ht      1  lig       0.322442
     51 H_1e          0.5743    2.2194   12.8032 hu      1  lig       0.109903
     52 H_1f         -0.1159   -0.0226   13.6276 hv      1  lig       0.076668
     53 H_1g         -2.5226   -0.4866   13.3791 hy      1  lig       0.121920
@<TRIPOS>BOND
     1     1     2    1
     2     1     6    1
     3     1    32    1
     4     1    33    1
     5     2     3    1
     6     2    34    1
     7     2    35    1
     8     3     4    1
     9     3     7    1
    10     3    36    1
    11     4     5    1
    12     4    37    1
    13     4    38    1
    14     5     6    1
    15     5    39    1
    16     5    40    1
    17     7     8    2
    18     7    31    1
    19     8     9    1
    20     8    41    1
    21     9    10    2
    22     9    42    1
    23    10    11    1
    24    10    30    1
    25    11    12    1
    26    11    43    1
    27    12    13    2
    28    12    20    1
    29    13    14    1
    30    14    15    2
    31    14    21    1
    32    15    16    1
    33    15    44    1
    34    16    17    1
    35    16    20    1
    36    17    18    2
    37    17    45    1
    38    18    19    1
    39    18    46    1
    40    19    20    2
    41    21    22    2
    42    21    29    1
    43    22    23    1
    44    22    47    1
    45    23    24    2
    46    23    48    1
    47    24    25    1
    48    24    28    1
    49    25    26    2
    50    25    49    1
    51    26    27    1
    52    27    28    1
    53    27    50    1
    54    28    29    2
    55    29    51    1
    56    30    31    2
    57    30    52    1
    58    31    53    1
