@<TRIPOS>MOLECULE
lig
  52   57 0 0 0
SMALL
NO_CHARGES


@<TRIPOS>ATOM
      1 C_00         -6.0443   -4.4602   16.2962 c4      1  lig      -0.220950
      2 C_01         -5.6240   -3.4001   15.2728 c5      1  lig       0.384308
      3 O_02         -6.7329   -2.9884   14.5080 o0      1  lig      -0.650836
      4 C_03         -4.7833   -2.2666   15.8350 c6      1  lig      -0.003788
      5 N_04         -3.8370   -2.3937   14.7064 n0      1  lig      -0.382666
      6 C_05         -4.3873   -3.7457   14.4627 c7      1  lig      -0.007076
      7 C_06         -2.4739   -2.0989   14.7890 c8      1  lig       0.162919
      8 C_07         -1.8935   -1.0737   14.0433 c9      1  lig      -0.169201
      9 C_08         -0.5352   -0.8073   14.1963 cb      1  lig      -0.113894
     10 C_09          0.2332   -1.5617   15.0991 ci      1  lig       0.037189
     11 N_0a          1.5948   -1.3216   15.3436 ng      1  lig      -0.187882
     12 C_0b          2.5323   -0.4320   14.7835 cj      1  lig       0.049744
     13 N_0c          2.1832    0.3856   13.7527 nr      1  lig      -0.157080
     14 C_0d          3.0997    1.2392   13.2138 ck      1  lig       0.018394
     15 C_0e          4.4085    1.2886   13.6971 cm      1  lig      -0.237073
     16 N_0f          4.7393    0.4966   14.7557 nw      1  lig       0.156508
     17 C_0g          5.8912    0.3843   15.4874 cn      1  lig      -0.384995
     18 C_0h          5.6000   -0.5403   16.4969 co      1  lig       0.034998
     19 N_0i          4.3900   -1.0499   16.3863 nA      1  lig      -0.543370
     20 C_0j          3.8285   -0.3910   15.3363 cq      1  lig       0.423286
     21 C_0k          2.6272    2.1508   12.1213 cr      1  lig       0.004263
     22 C_0l          3.5370    2.6346   11.1631 cs      1  lig      -0.105076
     23 C_0m          3.1492    3.4622   10.1085 ct      1  lig      -0.290117
     24 C_0n          1.8011    3.8208   10.0156 cw      1  lig       0.062770
     25 C_0o          0.9990    4.5979    9.1271 cA      1  lig       0.083800
     26 N_0p         -0.2497    4.6170    9.5128 nB      1  lig      -0.452919
     27 N_0q         -0.3315    3.8838   10.6343 nC      1  lig      -0.088173
     28 C_0r          0.8874    3.3527   10.9946 cB      1  lig       0.078468
     29 C_0s          1.2729    2.5247   12.0514 cC      1  lig      -0.161771
     30 C_0t         -0.3672   -2.5916   15.8262 cD      1  lig      -0.215310
     31 C_0u         -1.7168   -2.8552   15.6739 cE      1  lig      -0.160890
     32 H_0v         -5.2050   -4.7984   16.9035 h0      1  lig       0.064786
     33 H_0w         -6.8054   -4.0661   16.9698 h6      1  lig       0.064786
     34 H_0x         -6.4675   -5.3321   15.7974 h7      1  lig       0.064786
     35 H_0y         -6.4046   -2.3323   13.8881 h8      1  lig       0.401903
     36 H_0z         -4.3284   -2.4863   16.8029 h9      1  lig       0.053705
     37 H_10         -5.2892   -1.3024   15.8976 hb      1  lig       0.053705
     38 H_11         -4.5733   -3.9761   13.4129 hd      1  lig       0.055787
     39 H_12         -3.7850   -4.5482   14.8924 he      1  lig       0.055787
     40 H_13         -2.4933   -0.4925   13.3604 hf      1  lig       0.136374
     41 H_14         -0.1177   -0.0073   13.6132 hg      1  lig       0.096458
     42 H_15          2.0095   -1.8739   16.0815 hh      1  lig       0.233774
     43 H_16          5.1692    1.9645   13.3454 hi      1  lig       0.190043
     44 H_17          6.7768    0.9622   15.2769 hj      1  lig       0.235731
     45 H_18          6.2732   -0.8674   17.2818 hk      1  lig       0.168528
     46 H_19          4.5724    2.3319   11.2116 hl      1  lig       0.120694
     47 H_1a          3.8628    3.8049    9.3741 hm      1  lig       0.180718
     48 H_1b          1.3157    5.1254    8.2407 hq      1  lig       0.132242
     49 H_1c         -1.2162    3.7634   11.1025 hr      1  lig       0.311957
     50 H_1d          0.5632    2.1669   12.7820 ht      1  lig       0.111773
     51 H_1e          0.2126   -3.1777   16.5228 hu      1  lig       0.167878
     52 H_1f         -2.1693   -3.6422   16.2570 hv      1  lig       0.135005
@<TRIPOS>BOND
     1     1     2    1
     2     1    32    1
     3     1    33    1
     4     1    34    1
     5     2     3    1
     6     2     4    1
     7     2     6    1
     8     3    35    1
     9     4     5    1
    10     4    36    1
    11     4    37    1
    12     5     6    1
    13     5     7    1
    14     6    38    1
    15     6    39    1
    16     7     8    2
    17     7    31    1
    18     8     9    1
    19     8    40    1
    20     9    10    2
    21     9    41    1
    22    10    11    1
    23    10    30    1
    24    11    12    1
    25    11    42    1
    26    12    13    2
    27    12    20    1
    28    13    14    1
    29    14    15    2
    30    14    21    1
    31    15    16    1
    32    15    43    1
    33    16    17    1
    34    16    20    1
    35    17    18    2
    36    17    44    1
    37    18    19    1
    38    18    45    1
    39    19    20    2
    40    21    22    2
    41    21    29    1
    42    22    23    1
    43    22    46    1
    44    23    24    2
    45    23    47    1
    46    24    25    1
    47    24    28    1
    48    25    26    2
    49    25    48    1
    50    26    27    1
    51    27    28    1
    52    27    49    1
    53    28    29    2
    54    29    50    1
    55    30    31    2
    56    30    51    1
    57    31    52    1
