@<TRIPOS>MOLECULE
lig
  52   55 0 0 0
SMALL
NO_CHARGES


@<TRIPOS>ATOM
      1 C_00         -4.2555   -3.1029   13.5707 c4      1  lig      -0.029966
      2 O_01         -3.8740   -2.3535   14.7166 o0      1  lig      -0.376586
      3 C_02         -2.5261   -2.1057   14.8053 c5      1  lig       0.201962
      4 C_03         -1.7497   -2.8673   15.6804 c6      1  lig      -0.203540
      5 C_04         -0.3863   -2.6106   15.8150 c7      1  lig      -0.228296
      6 C_05          0.2220   -1.5829   15.0890 c8      1  lig      -0.006728
      7 N_06          1.5930   -1.3491   15.3060 n0      1  lig      -0.184917
      8 C_07          2.5452   -0.4689   14.7536 c9      1  lig       0.024185
      9 N_08          2.2178    0.3551   13.7190 ng      1  lig      -0.068028
     10 C_09          3.1227    1.2406   13.2181 cb      1  lig       0.006929
     11 C_0a          4.4207    1.3039   13.7175 ci      1  lig      -0.237262
     12 N_0b          4.7482    0.4921   14.7654 nr      1  lig       0.137729
     13 C_0c          5.8898    0.3836   15.5035 cj      1  lig      -0.356173
     14 C_0d          5.5715   -0.5089   16.5177 ck      1  lig       0.037203
     15 N_0e          4.3818   -1.0543   16.3920 nw      1  lig      -0.542328
     16 C_0f          3.8330   -0.4170   15.3252 cm      1  lig       0.411207
     17 C_0g          2.6564    2.1560   12.1340 cn      1  lig      -0.018258
     18 C_0h          3.5566    2.6280   11.1666 co      1  lig      -0.212094
     19 C_0i          3.1294    3.4499   10.1277 cq      1  lig      -0.144255
     20 C_0j          1.7879    3.8078   10.0318 cr      1  lig      -0.073108
     21 C_0k          1.3279    4.6787    8.9005 cs      1  lig       0.732871
     22 O_0l          0.1733    5.0540    8.7192 o1      1  lig      -0.577879
     23 N_0m          2.3332    5.0113    8.0903 nA      1  lig      -0.916567
     24 C_0n          0.8660    3.3707   10.9895 ct      1  lig       0.122169
     25 O_0o         -0.4627    3.7335   10.9031 o2      1  lig      -0.273482
     26 C_0p         -1.2689    3.2382   11.9077 cw      1  lig      -0.023122
     27 C_0q          1.3140    2.5576   12.0419 cA      1  lig      -0.018913
     28 C_0r         -0.5664   -0.8256   14.2115 cB      1  lig      -0.127617
     29 C_0s         -1.9389   -1.0760   14.0580 cC      1  lig       0.153911
     30 O_0t         -2.6991   -0.3052   13.2022 o3      1  lig      -0.269324
     31 C_0u         -2.0020    0.6747   12.5251 cD      1  lig      -0.064595
     32 H_0v         -5.3281   -3.2944   13.5971 h0      1  lig       0.079142
     33 H_0w         -3.7409   -4.0644   13.5414 h6      1  lig       0.079142
     34 H_0x         -4.0324   -2.5598   12.6514 h7      1  lig       0.079142
     35 H_0y         -2.2100   -3.6528   16.2607 h8      1  lig       0.173473
     36 H_0z          0.1910   -3.2101   16.5030 h9      1  lig       0.170833
     37 H_10          2.0247   -1.8856   16.0476 hb      1  lig       0.253011
     38 H_11          5.1702    2.0029   13.3720 hd      1  lig       0.199828
     39 H_12          6.7655    0.9739   15.2896 he      1  lig       0.226257
     40 H_13          6.2092   -0.8329   17.3299 hf      1  lig       0.168261
     41 H_14          4.5935    2.3311   11.2005 hg      1  lig       0.148577
     42 H_15          3.8342    3.7941    9.3846 hh      1  lig       0.152013
     43 H_16          2.2554    5.5897    7.2660 hi      1  lig       0.386154
     44 H_17          3.2955    4.7255    8.2018 hj      1  lig       0.386154
     45 H_18         -2.2930    3.5778   11.7524 hk      1  lig       0.082366
     46 H_19         -0.9095    3.5968   12.8721 hl      1  lig       0.082366
     47 H_1a         -1.2412    2.1486   11.8919 hm      1  lig       0.082366
     48 H_1b          0.6053    2.2127   12.7810 hq      1  lig       0.034922
     49 H_1c         -0.1548   -0.0169   13.6336 hr      1  lig       0.075605
     50 H_1d         -2.6852    1.2257   11.8788 ht      1  lig       0.088420
     51 H_1e         -1.2219    0.2131   11.9198 hu      1  lig       0.088420
     52 H_1f         -1.5485    1.3591   13.2420 hv      1  lig       0.088420
@<TRIPOS>BOND
     1     1     2    1
     2     1    32    1
     3     1    33    1
     4     1    34    1
     5     2     3    1
     6     3     4    2
     7     3    29    1
     8     4     5    1
     9     4    35    1
    10     5     6    2
    11     5    36    1
    12     6     7    1
    13     6    28    1
    14     7     8    1
    15     7    37    1
    16     8     9    2
    17     8    16    1
    18     9    10    1
    19    10    11    2
    20    10    17    1
    21    11    12    1
    22    11    38    1
    23    12    13    1
    24    12    16    1
    25    13    14    2
    26    13    39    1
    27    14    15    1
    28    14    40    1
    29    15    16    2
    30    17    18    2
    31    17    27    1
    32    18    19    1
    33    18    41    1
    34    19    20    2
    35    19    42    1
    36    20    21    1
    37    20    24    1
    38    21    22    2
    39    21    23    1
    40    23    43    1
    41    23    44    1
    42    24    25    1
    43    24    27    2
    44    25    26    1
    45    26    45    1
    46    26    46    1
    47    26    47    1
    48    27    48    1
    49    28    29    2
    50    28    49    1
    51    29    30    1
    52    30    31    1
    53    31    50    1
    54    31    51    1
    55    31    52    1
