@<TRIPOS>MOLECULE
lig
  55   60 0 0 0
SMALL
NO_CHARGES


@<TRIPOS>ATOM
      1 C_00         -4.7688   -2.7849   12.3431 c4      1  lig       0.046434
      2 C_01         -5.3846   -4.1377   12.6456 c5      1  lig       0.103335
      3 O_02         -4.4594   -4.9732   13.3425 o0      1  lig      -0.377239
      4 C_03         -4.3771   -4.8619   14.7737 c6      1  lig       0.085170
      5 C_04         -4.4823   -3.4746   15.4482 c7      1  lig       0.021252
      6 N_05         -3.8932   -2.3265   14.7696 n0      1  lig      -0.361609
      7 C_06         -4.5743   -1.9363   13.5651 c8      1  lig      -0.006591
      8 C_07         -2.4838   -2.1095   14.8521 c9      1  lig       0.125733
      9 C_08         -1.6944   -2.8761   15.7249 cb      1  lig      -0.119435
     10 C_09         -0.3386   -2.6335   15.8473 ci      1  lig      -0.251038
     11 C_0a          0.2634   -1.6168   15.1140 cj      1  lig       0.040684
     12 N_0b          1.6446   -1.3934   15.3516 ng      1  lig      -0.163632
     13 C_0c          2.5467   -0.4494   14.7774 ck      1  lig       0.041412
     14 N_0d          2.1622    0.3813   13.7703 nr      1  lig      -0.159143
     15 C_0e          3.0905    1.2361   13.2368 cm      1  lig       0.028974
     16 C_0f          4.3967    1.2828   13.6973 cn      1  lig      -0.246125
     17 N_0g          4.7322    0.4976   14.7555 nw      1  lig       0.163896
     18 C_0h          5.8998    0.3887   15.4576 co      1  lig      -0.380258
     19 C_0i          5.6143   -0.5477   16.4779 cq      1  lig       0.037399
     20 N_0j          4.4157   -1.0782   16.3290 nA      1  lig      -0.548192
     21 C_0k          3.8521   -0.4000   15.3224 cr      1  lig       0.412529
     22 C_0l          2.6115    2.1334   12.1178 cs      1  lig       0.006507
     23 C_0m          3.5406    2.6292   11.1800 ct      1  lig      -0.113395
     24 C_0n          3.1477    3.4565   10.1243 cw      1  lig      -0.277134
     25 C_0o          1.8039    3.8086   10.0214 cA      1  lig       0.052743
     26 C_0p          1.0010    4.6077    9.1343 cB      1  lig       0.085893
     27 N_0q         -0.2411    4.6153    9.5215 nB      1  lig      -0.457629
     28 N_0r         -0.3421    3.8665   10.6189 nC      1  lig      -0.080723
     29 C_0s          0.8809    3.3298   10.9772 cC      1  lig       0.067071
     30 C_0t          1.2478    2.4836   12.0372 cD      1  lig      -0.152271
     31 C_0u         -0.4905   -0.8517   14.2206 cE      1  lig      -0.119821
     32 C_0v         -1.8442   -1.1028   14.0951 cF      1  lig      -0.130016
     33 H_0w         -5.4655   -2.2112   11.7306 h0      1  lig       0.010568
     34 H_0x         -3.8535   -2.8315   11.7616 h6      1  lig       0.010568
     35 H_0y         -5.6106   -4.5931   11.6807 h7      1  lig       0.037503
     36 H_0z         -6.3420   -4.0330   13.1669 h8      1  lig       0.037503
     37 H_10         -3.4412   -5.3258   15.0901 h9      1  lig       0.045734
     38 H_11         -5.1781   -5.4795   15.1894 hb      1  lig       0.045734
     39 H_12         -4.1424   -3.5352   16.4845 hd      1  lig       0.058022
     40 H_13         -5.5391   -3.2263   15.6236 he      1  lig       0.058022
     41 H_14         -4.1926   -0.9915   13.1890 hf      1  lig       0.054654
     42 H_15         -5.5588   -1.6067   13.9319 hg      1  lig       0.054654
     43 H_16         -2.1452   -3.6541   16.3212 hh      1  lig       0.142215
     44 H_17          0.2418   -3.2285   16.5309 hi      1  lig       0.168520
     45 H_18          2.0461   -1.9727   16.0611 hj      1  lig       0.234949
     46 H_19          5.1489    1.9535   13.3193 hk      1  lig       0.191366
     47 H_1a          6.7638    0.9944   15.2597 hl      1  lig       0.231136
     48 H_1b          6.2642   -0.8294   17.2788 hm      1  lig       0.167082
     49 H_1c          4.5777    2.3521   11.2618 hq      1  lig       0.121625
     50 H_1d          3.8741    3.8108    9.4106 hr      1  lig       0.177618
     51 H_1e          1.3139    5.1535    8.2666 ht      1  lig       0.133161
     52 H_1f         -1.2254    3.7567   11.0774 hu      1  lig       0.314162
     53 H_1g          0.5353    2.1303   12.7513 hv      1  lig       0.105132
     54 H_1h         -0.0514   -0.0690   13.6498 hy      1  lig       0.087753
     55 H_1i         -2.4203   -0.4773   13.4210 hz      1  lig       0.137538
@<TRIPOS>BOND
     1     1     2    1
     2     1     7    1
     3     1    33    1
     4     1    34    1
     5     2     3    1
     6     2    35    1
     7     2    36    1
     8     3     4    1
     9     4     5    1
    10     4    37    1
    11     4    38    1
    12     5     6    1
    13     5    39    1
    14     5    40    1
    15     6     7    1
    16     6     8    1
    17     7    41    1
    18     7    42    1
    19     8     9    2
    20     8    32    1
    21     9    10    1
    22     9    43    1
    23    10    11    2
    24    10    44    1
    25    11    12    1
    26    11    31    1
    27    12    13    1
    28    12    45    1
    29    13    14    2
    30    13    21    1
    31    14    15    1
    32    15    16    2
    33    15    22    1
    34    16    17    1
    35    16    46    1
    36    17    18    1
    37    17    21    1
    38    18    19    2
    39    18    47    1
    40    19    20    1
    41    19    48    1
    42    20    21    2
    43    22    23    2
    44    22    30    1
    45    23    24    1
    46    23    49    1
    47    24    25    2
    48    24    50    1
    49    25    26    1
    50    25    29    1
    51    26    27    2
    52    26    51    1
    53    27    28    1
    54    28    29    1
    55    28    52    1
    56    29    30    2
    57    30    53    1
    58    31    32    2
    59    31    54    1
    60    32    55    1
