@<TRIPOS>MOLECULE
lig
  51   54 0 0 0
SMALL
NO_CHARGES


@<TRIPOS>ATOM
      1 C_00         -4.2553   -3.1063   13.5659 c4      1  lig       0.005106
      2 O_01         -3.8742   -2.3531   14.7065 o0      1  lig      -0.372181
      3 C_02         -2.5276   -2.1063   14.8134 c5      1  lig       0.163062
      4 C_03         -1.7534   -2.8662   15.6836 c6      1  lig      -0.129741
      5 C_04         -0.3974   -2.6067   15.8226 c7      1  lig      -0.322159
      6 C_05          0.2193   -1.5855   15.0957 c8      1  lig       0.005115
      7 N_06          1.6033   -1.3619   15.3321 n0      1  lig      -0.123638
      8 C_07          2.5310   -0.4394   14.7826 c9      1  lig       0.039128
      9 N_08          2.1681    0.3851   13.7534 ng      1  lig      -0.106189
     10 C_09          3.1084    1.2291   13.2323 cb      1  lig       0.001642
     11 C_0a          4.4111    1.2775   13.7062 ci      1  lig      -0.203995
     12 N_0b          4.7446    0.4849   14.7663 nr      1  lig       0.128663
     13 C_0c          5.8943    0.3819   15.4817 cj      1  lig      -0.362731
     14 C_0d          5.5914   -0.5326   16.5146 ck      1  lig       0.031513
     15 N_0e          4.3838   -1.0600   16.3570 nw      1  lig      -0.529138
     16 C_0f          3.8360   -0.3910   15.3315 cm      1  lig       0.403108
     17 C_0g          2.6494    2.1359   12.1286 cn      1  lig      -0.029978
     18 C_0h          3.5584    2.6335   11.1783 co      1  lig      -0.068786
     19 C_0i          3.1269    3.4578   10.1469 cq      1  lig      -0.242104
     20 C_0j          1.7725    3.8115   10.0354 cr      1  lig      -0.066456
     21 C_0k          1.3343    4.6941    8.8847 cs      1  lig       0.735475
     22 O_0l          2.0989    5.5193    8.3952 o1      1  lig      -0.590466
     23 N_0m          0.0978    4.4815    8.4258 nA      1  lig      -0.831702
     24 C_0n          0.8524    3.3384   11.0121 ct      1  lig       0.059837
     25 C_0o         -0.6224    3.7518   10.9890 cw      1  lig      -0.181050
     26 C_0p          1.2991    2.5101   12.0360 cA      1  lig      -0.131496
     27 C_0q         -0.5507   -0.8158   14.1957 cB      1  lig      -0.019656
     28 C_0r         -1.9415   -1.0842   14.0609 cC      1  lig       0.128838
     29 O_0s         -2.7452   -0.3406   13.2070 o2      1  lig      -0.233620
     30 C_0t         -2.1924    0.4470   12.1700 cD      1  lig      -0.062988
     31 H_0u         -5.3356   -3.2496   13.5811 h0      1  lig       0.065326
     32 H_0v         -3.7889   -4.0922   13.5603 h6      1  lig       0.065326
     33 H_0w         -4.0032   -2.5893   12.6399 h7      1  lig       0.065326
     34 H_0x         -2.2026   -3.6557   16.2609 h8      1  lig       0.160881
     35 H_0y          0.1866   -3.2024   16.5111 h9      1  lig       0.195115
     36 H_0z          1.9910   -1.9452   16.0564 hb      1  lig       0.219139
     37 H_10          5.1687    1.9466   13.3246 hd      1  lig       0.193382
     38 H_11          6.7729    0.9741   15.2789 he      1  lig       0.231687
     39 H_12          6.2395   -0.8158   17.3246 hf      1  lig       0.170197
     40 H_13          4.5960    2.3576   11.2295 hg      1  lig       0.116706
     41 H_14          3.8409    3.8102    9.4155 hh      1  lig       0.180556
     42 H_15         -0.2537    5.0105    7.6461 hi      1  lig       0.356991
     43 H_16         -0.4831    3.7720    8.8458 hj      1  lig       0.356991
     44 H_17         -1.1053    3.5651   11.9422 hk      1  lig       0.066397
     45 H_18         -1.1697    3.2135   10.2168 hl      1  lig       0.066397
     46 H_19         -0.7255    4.8289   10.8204 hm      1  lig       0.066397
     47 H_1a          0.6002    2.1680   12.7776 hq      1  lig       0.129007
     48 H_1b         -0.1045   -0.0276   13.6335 hr      1  lig      -0.052890
     49 H_1c         -3.0148    0.9031   11.6158 ht      1  lig       0.084552
     50 H_1d         -1.6244   -0.1596   11.4651 hu      1  lig       0.084552
     51 H_1e         -1.5752    1.2513   12.5580 hv      1  lig       0.084552
@<TRIPOS>BOND
     1     1     2    1
     2     1    31    1
     3     1    32    1
     4     1    33    1
     5     2     3    1
     6     3     4    2
     7     3    28    1
     8     4     5    1
     9     4    34    1
    10     5     6    2
    11     5    35    1
    12     6     7    1
    13     6    27    1
    14     7     8    1
    15     7    36    1
    16     8     9    2
    17     8    16    1
    18     9    10    1
    19    10    11    2
    20    10    17    1
    21    11    12    1
    22    11    37    1
    23    12    13    1
    24    12    16    1
    25    13    14    2
    26    13    38    1
    27    14    15    1
    28    14    39    1
    29    15    16    2
    30    17    18    2
    31    17    26    1
    32    18    19    1
    33    18    40    1
    34    19    20    2
    35    19    41    1
    36    20    21    1
    37    20    24    1
    38    21    22    2
    39    21    23    1
    40    23    42    1
    41    23    43    1
    42    24    25    1
    43    24    26    2
    44    25    44    1
    45    25    45    1
    46    25    46    1
    47    26    47    1
    48    27    28    2
    49    27    48    1
    50    28    29    1
    51    29    30    1
    52    30    49    1
    53    30    50    1
    54    30    51    1
