@<TRIPOS>MOLECULE
lig
  60   64 0 0 0
SMALL
NO_CHARGES


@<TRIPOS>ATOM
      1 C_00         -4.2555   -3.1029   13.5707 c4      1  lig       0.057299
      2 O_01         -3.8740   -2.3535   14.7166 o0      1  lig      -0.383175
      3 C_02         -2.5261   -2.1057   14.8053 c5      1  lig       0.253990
      4 C_03         -1.7497   -2.8673   15.6804 c6      1  lig      -0.258792
      5 C_04         -0.3863   -2.6106   15.8150 c7      1  lig      -0.180933
      6 C_05          0.2220   -1.5829   15.0890 c8      1  lig      -0.041801
      7 N_06          1.5930   -1.3491   15.3060 n0      1  lig      -0.201572
      8 C_07          2.5452   -0.4689   14.7536 c9      1  lig       0.050406
      9 N_08          2.2178    0.3551   13.7190 ng      1  lig      -0.087148
     10 C_09          3.1227    1.2406   13.2181 cb      1  lig      -0.005165
     11 C_0a          4.4207    1.3039   13.7175 ci      1  lig      -0.293755
     12 N_0b          4.7482    0.4921   14.7654 nr      1  lig       0.175794
     13 C_0c          5.8898    0.3836   15.5035 cj      1  lig      -0.390005
     14 C_0d          5.5715   -0.5089   16.5177 ck      1  lig       0.039321
     15 N_0e          4.3818   -1.0543   16.3920 nw      1  lig      -0.559862
     16 C_0f          3.8330   -0.4170   15.3252 cm      1  lig       0.412211
     17 C_0g          2.6564    2.1560   12.1340 cn      1  lig       0.018013
     18 C_0h          3.5566    2.6280   11.1666 co      1  lig      -0.111042
     19 C_0i          3.1294    3.4499   10.1277 cq      1  lig      -0.205519
     20 C_0j          1.7879    3.8078   10.0318 cr      1  lig      -0.082599
     21 C_0k          0.8660    3.3707   10.9895 cs      1  lig      -0.096169
     22 C_0l          1.3140    2.5576   12.0419 ct      1  lig      -0.048108
     23 C_0m         -0.5783    3.7648   10.8956 cw      1  lig       0.573727
     24 O_0n         -1.2610    3.7179    9.8765 o1      1  lig      -0.539362
     25 N_0o         -1.0553    4.1831   12.0683 nA      1  lig      -0.484631
     26 C_0p         -2.4212    4.6362   12.3150 cA      1  lig       0.131963
     27 C_0q         -2.7024    5.4228   13.4257 cB      1  lig      -0.184219
     28 C_0r         -4.0026    5.8541   13.6606 cC      1  lig      -0.203301
     29 C_0s         -5.0215    5.4987   12.7847 cD      1  lig      -0.153048
     30 C_0t         -4.7403    4.7121   11.6740 cE      1  lig      -0.037016
     31 C_0u         -3.4401    4.2808   11.4391 cF      1  lig      -0.108772
     32 C_0v         -5.8399    4.3286   10.7287 cG      1  lig       0.733858
     33 O_0w         -5.6116    3.6277    9.7316 o2      1  lig      -0.745787
     34 O_0x         -6.9848    4.7354   10.9767 o3      1  lig      -0.744984
     35 C_0y         -0.5664   -0.8256   14.2115 cH      1  lig      -0.142611
     36 C_0z         -1.9389   -1.0760   14.0580 cI      1  lig       0.100436
     37 O_10         -2.6991   -0.3052   13.2021 o4      1  lig      -0.089956
     38 C_11         -2.0020    0.6746   12.5251 cJ      1  lig      -0.204404
     39 H_12         -3.7528   -4.0708   13.5508 h0      1  lig       0.050819
     40 H_13         -4.0179   -2.5675   12.6505 h6      1  lig       0.050819
     41 H_14         -5.3306   -3.2808   13.5889 h7      1  lig       0.050819
     42 H_15         -2.2100   -3.6528   16.2607 h8      1  lig       0.156038
     43 H_16          0.1911   -3.2101   16.5029 h9      1  lig       0.145412
     44 H_17          2.0246   -1.8858   16.0475 hb      1  lig       0.251555
     45 H_18          5.1701    2.0030   13.3719 hd      1  lig       0.197255
     46 H_19          6.7656    0.9739   15.2897 he      1  lig       0.225707
     47 H_1a          6.2089   -0.8330   17.3301 hf      1  lig       0.158927
     48 H_1b          4.5934    2.3309   11.2002 hg      1  lig       0.123318
     49 H_1c          3.8342    3.7939    9.3845 hh      1  lig       0.143176
     50 H_1d          1.4564    4.4350    9.2166 hi      1  lig       0.143725
     51 H_1e          0.6053    2.2130   12.7811 hj      1  lig       0.042873
     52 H_1f         -0.5302    4.2377   12.9293 hk      1  lig       0.304028
     53 H_1g         -1.9091    5.6994   14.1077 hl      1  lig       0.114965
     54 H_1h         -4.2216    6.4665   14.5254 hm      1  lig       0.137465
     55 H_1i         -6.0338    5.8345   12.9676 hq      1  lig       0.149583
     56 H_1j         -3.2211    3.6684   10.5743 hr      1  lig       0.145318
     57 H_1k         -0.1547   -0.0168   13.6337 ht      1  lig       0.081274
     58 H_1l         -2.6851    1.2257   11.8787 hu      1  lig       0.121214
     59 H_1m         -1.2218    0.2131   11.9198 hv      1  lig       0.121214
     60 H_1n         -1.5485    1.3591   13.2420 hy      1  lig       0.121214
@<TRIPOS>BOND
     1     1     2    1
     2     1    39    1
     3     1    40    1
     4     1    41    1
     5     2     3    1
     6     3     4    2
     7     3    36    1
     8     4     5    1
     9     4    42    1
    10     5     6    2
    11     5    43    1
    12     6     7    1
    13     6    35    1
    14     7     8    1
    15     7    44    1
    16     8     9    2
    17     8    16    1
    18     9    10    1
    19    10    11    2
    20    10    17    1
    21    11    12    1
    22    11    45    1
    23    12    13    1
    24    12    16    1
    25    13    14    2
    26    13    46    1
    27    14    15    1
    28    14    47    1
    29    15    16    2
    30    17    18    2
    31    17    22    1
    32    18    19    1
    33    18    48    1
    34    19    20    2
    35    19    49    1
    36    20    21    1
    37    20    50    1
    38    21    22    2
    39    21    23    1
    40    22    51    1
    41    23    24    2
    42    23    25    1
    43    25    26    1
    44    25    52    1
    45    26    27    2
    46    26    31    1
    47    27    28    1
    48    27    53    1
    49    28    29    2
    50    28    54    1
    51    29    30    1
    52    29    55    1
    53    30    31    2
    54    30    32    1
    55    31    56    1
    56    32    33    2
    57    32    34    1
    58    35    36    2
    59    35    57    1
    60    36    37    1
    61    37    38    1
    62    38    58    1
    63    38    59    1
    64    38    60    1
