@<TRIPOS>MOLECULE
lig
  64   68 0 0 0
SMALL
NO_CHARGES


@<TRIPOS>ATOM
      1 C_00         -8.4523    6.1854   12.2890 c4      1  lig      -0.094140
      2 O_01         -7.1802    5.7049   12.0537 o0      1  lig      -0.341891
      3 C_02         -6.3297    6.2883   12.9360 c5      1  lig       0.744057
      4 O_03         -6.6901    7.1009   13.7801 o1      1  lig      -0.574851
      5 C_04         -4.9394    5.7785   12.6965 c6      1  lig      -0.115525
      6 C_05         -4.7034    4.8507   11.6890 c7      1  lig      -0.177104
      7 C_06         -3.4153    4.3784   11.4671 c8      1  lig      -0.029310
      8 C_07         -2.3631    4.8339   12.2526 c9      1  lig       0.048250
      9 N_08         -1.0100    4.3378   12.0195 n0      1  lig      -0.274542
     10 C_09         -0.5783    3.7648   10.8956 cb      1  lig       0.486806
     11 O_0a         -1.2977    3.5927    9.9160 o2      1  lig      -0.514928
     12 C_0b          0.8660    3.3707   10.9895 ci      1  lig      -0.078668
     13 C_0c          1.7879    3.8078   10.0318 cj      1  lig      -0.083685
     14 C_0d          3.1294    3.4499   10.1277 ck      1  lig      -0.212302
     15 C_0e          3.5566    2.6280   11.1666 cm      1  lig      -0.076522
     16 C_0f          2.6564    2.1560   12.1340 cn      1  lig       0.000566
     17 C_0g          1.3140    2.5576   12.0419 co      1  lig      -0.090454
     18 C_0h          3.1227    1.2406   13.2181 cq      1  lig       0.015084
     19 C_0i          4.4207    1.3039   13.7175 cr      1  lig      -0.287603
     20 N_0j          4.7482    0.4921   14.7654 ng      1  lig       0.188790
     21 C_0k          5.8898    0.3836   15.5035 cs      1  lig      -0.365011
     22 C_0l          5.5715   -0.5089   16.5177 ct      1  lig       0.017604
     23 N_0m          4.3818   -1.0543   16.3920 nr      1  lig      -0.522513
     24 C_0n          3.8330   -0.4170   15.3252 cw      1  lig       0.393656
     25 C_0o          2.5452   -0.4689   14.7536 cA      1  lig       0.018796
     26 N_0p          1.5930   -1.3491   15.3060 nw      1  lig      -0.102270
     27 C_0q          0.2220   -1.5829   15.0890 cB      1  lig      -0.000171
     28 C_0r         -0.3863   -2.6106   15.8150 cC      1  lig      -0.325760
     29 C_0s         -1.7497   -2.8673   15.6804 cD      1  lig      -0.105575
     30 C_0t         -2.5261   -2.1057   14.8053 cE      1  lig       0.144772
     31 O_0u         -3.8740   -2.3535   14.7166 o3      1  lig      -0.367176
     32 C_0v         -4.2555   -3.1029   13.5707 cF      1  lig       0.022539
     33 C_0w         -1.9389   -1.0760   14.0580 cG      1  lig       0.135164
     34 O_0x         -2.6991   -0.3052   13.2022 o4      1  lig      -0.236787
     35 C_0y         -2.0020    0.6747   12.5251 cH      1  lig      -0.083843
     36 C_0z         -0.5664   -0.8256   14.2115 cI      1  lig      -0.045883
     37 N_10          2.2178    0.3551   13.7190 nA      1  lig      -0.105070
     38 C_11         -2.5991    5.7618   13.2601 cJ      1  lig      -0.210325
     39 C_12         -3.8873    6.2341   13.4820 cK      1  lig      -0.093873
     40 H_13         -9.1495    5.7265   11.5880 h0      1  lig       0.100267
     41 H_14         -8.4625    7.2672   12.1559 h6      1  lig       0.100267
     42 H_15         -8.7497    5.9420   13.3091 h7      1  lig       0.100267
     43 H_16         -5.5226    4.4960   11.0774 h8      1  lig       0.132257
     44 H_17         -3.2316    3.6560   10.6827 h9      1  lig       0.140106
     45 H_18         -0.4537    4.4986   12.8470 hb      1  lig       0.246771
     46 H_19          1.4564    4.4350    9.2166 hd      1  lig       0.158151
     47 H_1a          3.8342    3.7939    9.3845 he      1  lig       0.161403
     48 H_1b          4.5934    2.3309   11.2002 hf      1  lig       0.132997
     49 H_1c          0.6053    2.2130   12.7811 hg      1  lig       0.109409
     50 H_1d          5.1701    2.0030   13.3719 hh      1  lig       0.200916
     51 H_1e          6.7656    0.9739   15.2897 hi      1  lig       0.230889
     52 H_1f          6.2088   -0.8330   17.3301 hj      1  lig       0.174817
     53 H_1g          2.0245   -1.8852   16.0480 hk      1  lig       0.214676
     54 H_1h          0.1911   -3.2101   16.5029 hl      1  lig       0.193764
     55 H_1i         -2.2100   -3.6528   16.2607 hm      1  lig       0.153231
     56 H_1j         -5.3306   -3.2805   13.5887 hq      1  lig       0.061794
     57 H_1k         -3.7531   -4.0710   13.5510 hr      1  lig       0.061794
     58 H_1l         -4.0176   -2.5677   12.6505 ht      1  lig       0.061794
     59 H_1m         -2.6851    1.2257   11.8788 hu      1  lig       0.100929
     60 H_1n         -1.2219    0.2131   11.9198 hv      1  lig       0.100929
     61 H_1o         -1.5485    1.3591   13.2420 hy      1  lig       0.100929
     62 H_1p         -0.1547   -0.0168   13.6337 hz      1  lig      -0.043545
     63 H_1q         -1.7800    6.1164   13.8717 hA      1  lig       0.155639
     64 H_1r         -4.0710    6.9565   14.2664 hB      1  lig       0.149247
@<TRIPOS>BOND
     1     1     2    1
     2     1    40    1
     3     1    41    1
     4     1    42    1
     5     2     3    1
     6     3     4    2
     7     3     5    1
     8     5     6    2
     9     5    39    1
    10     6     7    1
    11     6    43    1
    12     7     8    2
    13     7    44    1
    14     8     9    1
    15     8    38    1
    16     9    10    1
    17     9    45    1
    18    10    11    2
    19    10    12    1
    20    12    13    2
    21    12    17    1
    22    13    14    1
    23    13    46    1
    24    14    15    2
    25    14    47    1
    26    15    16    1
    27    15    48    1
    28    16    17    2
    29    16    18    1
    30    17    49    1
    31    18    19    2
    32    18    37    1
    33    19    20    1
    34    19    50    1
    35    20    21    1
    36    20    24    1
    37    21    22    2
    38    21    51    1
    39    22    23    1
    40    22    52    1
    41    23    24    2
    42    24    25    1
    43    25    26    1
    44    25    37    2
    45    26    27    1
    46    26    53    1
    47    27    28    2
    48    27    36    1
    49    28    29    1
    50    28    54    1
    51    29    30    2
    52    29    55    1
    53    30    31    1
    54    30    33    1
    55    31    32    1
    56    32    56    1
    57    32    57    1
    58    32    58    1
    59    33    34    1
    60    33    36    2
    61    34    35    1
    62    35    59    1
    63    35    60    1
    64    35    61    1
    65    36    62    1
    66    38    39    2
    67    38    63    1
    68    39    64    1
