@<TRIPOS>MOLECULE
lig
  48   51 0 0 0
SMALL
NO_CHARGES


@<TRIPOS>ATOM
      1 C_00         -4.2558   -3.1075   13.5651 c4      1  lig       0.000128
      2 O_01         -3.8718   -2.3575   14.7067 o0      1  lig      -0.372654
      3 C_02         -2.5253   -2.1086   14.8120 c5      1  lig       0.162285
      4 C_03         -1.7526   -2.8682   15.6804 c6      1  lig      -0.123349
      5 C_04         -0.3955   -2.6067   15.8218 c7      1  lig      -0.323256
      6 C_05          0.2199   -1.5810   15.0999 c8      1  lig       0.001505
      7 N_06          1.6019   -1.3576   15.3437 n0      1  lig      -0.117379
      8 C_07          2.5286   -0.4382   14.7882 c9      1  lig       0.024771
      9 N_08          2.1607    0.3911   13.7686 ng      1  lig      -0.101276
     10 C_09          3.1048    1.2259   13.2324 cb      1  lig       0.011172
     11 C_0a          4.4053    1.2717   13.7035 ci      1  lig      -0.222044
     12 N_0b          4.7404    0.4886   14.7629 nr      1  lig       0.153876
     13 C_0c          5.8950    0.3907   15.4847 cj      1  lig      -0.375396
     14 C_0d          5.6038   -0.5479   16.5103 ck      1  lig       0.041539
     15 N_0e          4.3901   -1.0599   16.3616 nw      1  lig      -0.527843
     16 C_0f          3.8363   -0.3960   15.3347 cm      1  lig       0.401282
     17 C_0g          2.6462    2.1273   12.1323 cn      1  lig      -0.020260
     18 C_0h          3.5538    2.6360   11.1838 co      1  lig      -0.116920
     19 C_0i          3.1137    3.4699   10.1556 cq      1  lig      -0.204977
     20 C_0j          1.7615    3.8212   10.0639 cr      1  lig      -0.023044
     21 C_0k          1.3043    4.7272    8.9268 cs      1  lig       0.696169
     22 O_0l          2.1134    5.3522    8.2339 o1      1  lig      -0.590717
     23 N_0m         -0.0095    4.7686    8.7196 nA      1  lig      -0.880788
     24 C_0n          0.8533    3.3219   11.0251 ct      1  lig       0.141442
     25 F_0o         -0.4584    3.6572   10.9807 f0      1  lig      -0.178178
     26 C_0p          1.2985    2.4859   12.0366 cw      1  lig      -0.086481
     27 C_0q         -0.5548   -0.8117   14.1978 cA      1  lig      -0.024509
     28 C_0r         -1.9397   -1.0798   14.0626 cB      1  lig       0.124238
     29 O_0s         -2.7418   -0.3359   13.2115 o2      1  lig      -0.213479
     30 C_0t         -2.2196    0.7089   12.4090 cC      1  lig      -0.114843
     31 H_0u         -5.3371   -3.2496   13.5811 h0      1  lig       0.066654
     32 H_0v         -3.7876   -4.0927   13.5589 h6      1  lig       0.066654
     33 H_0w         -4.0021   -2.5904   12.6387 h7      1  lig       0.066654
     34 H_0x         -2.2126   -3.6572   16.2596 h8      1  lig       0.159563
     35 H_0y          0.1938   -3.1989   16.5120 h9      1  lig       0.194418
     36 H_0z          1.9968   -1.9524   16.0600 hb      1  lig       0.221624
     37 H_10          5.1643    1.9375   13.3203 hd      1  lig       0.196069
     38 H_11          6.7745    0.9863   15.2762 he      1  lig       0.235080
     39 H_12          6.2506   -0.8438   17.3184 hf      1  lig       0.168739
     40 H_13          4.6006    2.3663   11.2383 hg      1  lig       0.135867
     41 H_14          3.8176    3.8358    9.4198 hh      1  lig       0.185058
     42 H_15         -0.3831    5.3154    7.9569 hi      1  lig       0.392970
     43 H_16         -0.6305    4.2313    9.2991 hj      1  lig       0.392970
     44 H_17          0.5971    2.1203   12.7706 hk      1  lig       0.117101
     45 H_18         -0.1130   -0.0200   13.6277 hl      1  lig      -0.041497
     46 H_19         -3.0413    1.1202   11.8191 hm      1  lig       0.100354
     47 H_1a         -1.4622    0.3434   11.7132 hq      1  lig       0.100354
     48 H_1b         -1.8206    1.5118   13.0307 hr      1  lig       0.100354
@<TRIPOS>BOND
     1     1     2    1
     2     1    31    1
     3     1    32    1
     4     1    33    1
     5     2     3    1
     6     3     4    2
     7     3    28    1
     8     4     5    1
     9     4    34    1
    10     5     6    2
    11     5    35    1
    12     6     7    1
    13     6    27    1
    14     7     8    1
    15     7    36    1
    16     8     9    2
    17     8    16    1
    18     9    10    1
    19    10    11    2
    20    10    17    1
    21    11    12    1
    22    11    37    1
    23    12    13    1
    24    12    16    1
    25    13    14    2
    26    13    38    1
    27    14    15    1
    28    14    39    1
    29    15    16    2
    30    17    18    2
    31    17    26    1
    32    18    19    1
    33    18    40    1
    34    19    20    2
    35    19    41    1
    36    20    21    1
    37    20    24    1
    38    21    22    2
    39    21    23    1
    40    23    42    1
    41    23    43    1
    42    24    25    1
    43    24    26    2
    44    26    44    1
    45    27    28    2
    46    27    45    1
    47    28    29    1
    48    29    30    1
    49    30    46    1
    50    30    47    1
    51    30    48    1
