@<TRIPOS>MOLECULE
lig
  64   68 0 0 0
SMALL
NO_CHARGES


@<TRIPOS>ATOM
      1 C_00         -4.1531   -3.4266   13.5369 c4      1  lig      -0.364555
      2 C_01         -3.9919   -2.3907   14.6629 c5      1  lig       0.291419
      3 C_02         -4.6875   -1.0646   14.3101 c6      1  lig      -0.316030
      4 C_03         -4.4873   -2.9438   16.0103 c7      1  lig      -0.630858
      5 C_04         -2.5261   -2.1057   14.8053 c8      1  lig       0.010511
      6 C_05         -1.9389   -1.0760   14.0580 c9      1  lig      -0.113208
      7 C_06         -0.5664   -0.8256   14.2115 cb      1  lig      -0.189005
      8 C_07          0.2220   -1.5829   15.0890 ci      1  lig       0.053463
      9 N_08          1.5930   -1.3491   15.3060 n0      1  lig      -0.286969
     10 C_09          2.5452   -0.4689   14.7536 cj      1  lig       0.137354
     11 N_0a          2.2178    0.3551   13.7190 ng      1  lig      -0.189457
     12 C_0b          3.1227    1.2406   13.2181 ck      1  lig       0.039766
     13 C_0c          4.4207    1.3039   13.7175 cm      1  lig      -0.281229
     14 N_0d          4.7482    0.4921   14.7654 nr      1  lig       0.163152
     15 C_0e          5.8898    0.3836   15.5035 cn      1  lig      -0.384509
     16 C_0f          5.5715   -0.5089   16.5177 co      1  lig       0.037541
     17 N_0g          4.3818   -1.0543   16.3920 nw      1  lig      -0.570607
     18 C_0h          3.8330   -0.4170   15.3252 cq      1  lig       0.412208
     19 C_0i          2.6564    2.1560   12.1340 cr      1  lig       0.001448
     20 C_0j          3.5566    2.6280   11.1666 cs      1  lig      -0.145829
     21 C_0k          3.1294    3.4499   10.1277 ct      1  lig      -0.227736
     22 C_0l          1.7879    3.8078   10.0318 cw      1  lig      -0.143615
     23 C_0m          0.8660    3.3707   10.9895 cA      1  lig       0.120954
     24 N_0n         -0.5399    3.7537   10.8977 nA      1  lig      -0.489227
     25 C_0o         -1.2550    4.3141   11.8736 cB      1  lig       0.608121
     26 O_0p         -0.8140    4.4931   13.0050 o0      1  lig      -0.538147
     27 C_0q         -2.6333    4.6854   11.4124 cC      1  lig      -0.098564
     28 C_0r         -3.5436    5.2295   12.3108 cD      1  lig      -0.168692
     29 C_0s         -4.8206    5.5735   11.8835 cE      1  lig      -0.095699
     30 C_0t         -5.1873    5.3735   10.5579 cF      1  lig       0.006705
     31 C_0u         -4.2770    4.8294    9.6596 cG      1  lig      -0.171710
     32 C_0v         -3.0000    4.4854   10.0869 cH      1  lig      -0.173444
     33 C_0w         -6.5655    5.7447   10.0968 cI      1  lig       0.764960
     34 O_0x         -6.9139    5.5749    8.9190 o1      1  lig      -0.758788
     35 O_0y         -7.3451    6.2270   10.9318 o2      1  lig      -0.754171
     36 C_0z          1.3140    2.5576   12.0419 cJ      1  lig      -0.034132
     37 C_10         -0.3863   -2.6106   15.8150 cK      1  lig      -0.171653
     38 C_11         -1.7497   -2.8673   15.6804 cL      1  lig      -0.197374
     39 H_12         -5.2013   -3.6828   13.3771 h0      1  lig       0.103915
     40 H_13         -3.6186   -4.3486   13.7684 h6      1  lig       0.103915
     41 H_14         -3.7570   -3.0497   12.5933 h7      1  lig       0.103915
     42 H_15         -4.2998   -0.6503   13.3787 h8      1  lig       0.099851
     43 H_16         -4.5308   -0.3167   15.0883 h9      1  lig       0.099851
     44 H_17         -5.7636   -1.1975   14.1906 hb      1  lig       0.099851
     45 H_18         -5.5529   -3.1749   15.9796 hd      1  lig       0.163601
     46 H_19         -4.3275   -2.2256   16.8153 he      1  lig       0.163601
     47 H_1a         -3.9581   -3.8582   16.2809 hf      1  lig       0.163601
     48 H_1b         -2.5303   -0.4809   13.3780 hg      1  lig       0.140834
     49 H_1c         -0.1531   -0.0197   13.6305 hh      1  lig       0.160396
     50 H_1d          2.0242   -1.8881   16.0458 hi      1  lig       0.265210
     51 H_1e          5.1702    2.0027   13.3717 hj      1  lig       0.198106
     52 H_1f          6.7657    0.9737   15.2895 hk      1  lig       0.220411
     53 H_1g          6.2091   -0.8330   17.3300 hl      1  lig       0.158766
     54 H_1h          4.5934    2.3308   11.2002 hm      1  lig       0.119052
     55 H_1i          3.8342    3.7938    9.3845 hq      1  lig       0.154824
     56 H_1j          1.4564    4.4348    9.2165 hr      1  lig       0.131167
     57 H_1k         -0.8833    3.5257    9.9756 ht      1  lig       0.309765
     58 H_1l         -3.2580    5.3853   13.3428 hu      1  lig       0.136338
     59 H_1m         -5.5293    5.9971   12.5829 hv      1  lig       0.121782
     60 H_1n         -4.5625    4.6736    8.6276 hy      1  lig       0.147786
     61 H_1o         -2.2913    4.0618    9.3875 hz      1  lig       0.126919
     62 H_1p          0.6052    2.2121   12.7807 hA      1  lig       0.091094
     63 H_1q          0.1929   -3.2118   16.5002 hB      1  lig       0.134354
     64 H_1r         -2.2057   -3.6608   16.2538 hC      1  lig       0.128701
@<TRIPOS>BOND
     1     1     2    1
     2     1    39    1
     3     1    40    1
     4     1    41    1
     5     2     3    1
     6     2     4    1
     7     2     5    1
     8     3    42    1
     9     3    43    1
    10     3    44    1
    11     4    45    1
    12     4    46    1
    13     4    47    1
    14     5     6    2
    15     5    38    1
    16     6     7    1
    17     6    48    1
    18     7     8    2
    19     7    49    1
    20     8     9    1
    21     8    37    1
    22     9    10    1
    23     9    50    1
    24    10    11    2
    25    10    18    1
    26    11    12    1
    27    12    13    2
    28    12    19    1
    29    13    14    1
    30    13    51    1
    31    14    15    1
    32    14    18    1
    33    15    16    2
    34    15    52    1
    35    16    17    1
    36    16    53    1
    37    17    18    2
    38    19    20    2
    39    19    36    1
    40    20    21    1
    41    20    54    1
    42    21    22    2
    43    21    55    1
    44    22    23    1
    45    22    56    1
    46    23    24    1
    47    23    36    2
    48    24    25    1
    49    24    57    1
    50    25    26    2
    51    25    27    1
    52    27    28    2
    53    27    32    1
    54    28    29    1
    55    28    58    1
    56    29    30    2
    57    29    59    1
    58    30    31    1
    59    30    33    1
    60    31    32    2
    61    31    60    1
    62    32    61    1
    63    33    34    2
    64    33    35    1
    65    36    62    1
    66    37    38    2
    67    37    63    1
    68    38    64    1
