@<TRIPOS>MOLECULE
lig
  48   52 0 0 0
SMALL
NO_CHARGES


@<TRIPOS>ATOM
      1 C_00         -4.2568   -3.1050   13.5687 c4      1  lig      -0.017250
      2 O_01         -3.8730   -2.3616   14.7152 o0      1  lig      -0.372369
      3 C_02         -2.5250   -2.1116   14.8158 c5      1  lig       0.153167
      4 C_03         -1.7470   -2.8700   15.6807 c6      1  lig      -0.125292
      5 C_04         -0.3902   -2.6106   15.8144 c7      1  lig      -0.308651
      6 C_05          0.2207   -1.5844   15.0868 c8      1  lig      -0.007287
      7 N_06          1.6046   -1.3596   15.3257 n0      1  lig      -0.126931
      8 C_07          2.5329   -0.4401   14.7638 c9      1  lig       0.021495
      9 N_08          2.1751    0.3788   13.7311 ng      1  lig      -0.109260
     10 C_09          3.1086    1.2387   13.2176 cb      1  lig       0.018258
     11 C_0a          4.4159    1.2831   13.6998 ci      1  lig      -0.232468
     12 N_0b          4.7435    0.4926   14.7566 nr      1  lig       0.136509
     13 C_0c          5.8975    0.3810   15.4862 cj      1  lig      -0.365569
     14 C_0d          5.5917   -0.5286   16.5249 ck      1  lig       0.030828
     15 N_0e          4.3780   -1.0408   16.3703 nw      1  lig      -0.542347
     16 C_0f          3.8370   -0.3906   15.3278 cm      1  lig       0.415179
     17 C_0g          2.6350    2.1602   12.1213 cn      1  lig      -0.006832
     18 C_0h          3.5425    2.6402   11.1650 co      1  lig      -0.177283
     19 C_0i          3.1493    3.4616   10.1117 cq      1  lig      -0.243471
     20 C_0j          1.8041    3.8212   10.0117 cr      1  lig       0.151341
     21 C_0k          1.0219    4.6165    9.0806 cs      1  lig      -0.305298
     22 C_0l         -0.2682    4.5927    9.5377 ct      1  lig      -0.154538
     23 N_0m         -0.3496    3.8668   10.6667 nA      1  lig      -0.303359
     24 C_0n          0.8806    3.3533   11.0064 cw      1  lig       0.066059
     25 C_0o          1.2701    2.5323   12.0703 cA      1  lig      -0.140382
     26 C_0p         -0.5547   -0.8186   14.1912 cB      1  lig      -0.049091
     27 C_0q         -1.9427   -1.0874   14.0603 cC      1  lig       0.123027
     28 O_0r         -2.7500   -0.3519   13.2066 o1      1  lig      -0.208379
     29 C_0s         -2.2281    0.6471   12.3512 cD      1  lig      -0.145029
     30 H_0t         -5.3362   -3.2528   13.5863 h0      1  lig       0.072026
     31 H_0u         -3.7878   -4.0896   13.5583 h6      1  lig       0.072026
     32 H_0v         -4.0115   -2.5819   12.6430 h7      1  lig       0.072026
     33 H_0w         -2.1984   -3.6612   16.2623 h8      1  lig       0.159603
     34 H_0x          0.1986   -3.2043   16.5000 h9      1  lig       0.187516
     35 H_0y          1.9930   -1.9388   16.0550 hb      1  lig       0.228437
     36 H_0z          5.1768    1.9603   13.3373 hd      1  lig       0.193895
     37 H_10          6.7836    0.9581   15.2759 he      1  lig       0.229267
     38 H_11          6.2317   -0.8060   17.3476 hf      1  lig       0.167981
     39 H_12          4.5826    2.3470   11.2271 hg      1  lig       0.133335
     40 H_13          3.8655    3.8013    9.3845 hh      1  lig       0.169881
     41 H_14          1.3655    5.1278    8.2063 hi      1  lig       0.178907
     42 H_15         -1.1634    5.0533    9.1382 hj      1  lig       0.198838
     43 H_16         -1.2206    3.7428   11.1558 hk      1  lig       0.336035
     44 H_17          0.5744    2.1993   12.8125 hl      1  lig       0.106319
     45 H_18         -0.1099   -0.0288   13.6231 hm      1  lig       0.002532
     46 H_19         -3.0484    1.0726   11.7702 hq      1  lig       0.105533
     47 H_1a         -1.5061    0.2341   11.6487 hr      1  lig       0.105533
     48 H_1b         -1.7788    1.4529   12.9278 ht      1  lig       0.105533
@<TRIPOS>BOND
     1     1     2    1
     2     1    30    1
     3     1    31    1
     4     1    32    1
     5     2     3    1
     6     3     4    2
     7     3    27    1
     8     4     5    1
     9     4    33    1
    10     5     6    2
    11     5    34    1
    12     6     7    1
    13     6    26    1
    14     7     8    1
    15     7    35    1
    16     8     9    2
    17     8    16    1
    18     9    10    1
    19    10    11    2
    20    10    17    1
    21    11    12    1
    22    11    36    1
    23    12    13    1
    24    12    16    1
    25    13    14    2
    26    13    37    1
    27    14    15    1
    28    14    38    1
    29    15    16    2
    30    17    18    2
    31    17    25    1
    32    18    19    1
    33    18    39    1
    34    19    20    2
    35    19    40    1
    36    20    21    1
    37    20    24    1
    38    21    22    2
    39    21    41    1
    40    22    23    1
    41    22    42    1
    42    23    24    1
    43    23    43    1
    44    24    25    2
    45    25    44    1
    46    26    27    2
    47    26    45    1
    48    27    28    1
    49    28    29    1
    50    29    46    1
    51    29    47    1
    52    29    48    1
