@<TRIPOS>MOLECULE
lig
  51   54 0 0 0
SMALL
NO_CHARGES


@<TRIPOS>ATOM
      1 C_00         -4.2555   -3.1029   13.5707 c4      1  lig      -0.011771
      2 O_01         -3.8740   -2.3535   14.7166 o0      1  lig      -0.377295
      3 C_02         -2.5261   -2.1057   14.8053 c5      1  lig       0.171220
      4 C_03         -1.7497   -2.8673   15.6804 c6      1  lig      -0.135613
      5 C_04         -0.3863   -2.6106   15.8150 c7      1  lig      -0.308826
      6 C_05          0.2220   -1.5829   15.0890 c8      1  lig      -0.001927
      7 N_06          1.5930   -1.3491   15.3060 n0      1  lig      -0.123976
      8 C_07          2.5452   -0.4689   14.7536 c9      1  lig       0.011490
      9 N_08          2.2178    0.3551   13.7190 ng      1  lig      -0.088800
     10 C_09          3.1227    1.2406   13.2181 cb      1  lig       0.007770
     11 C_0a          4.4207    1.3039   13.7175 ci      1  lig      -0.245188
     12 N_0b          4.7482    0.4921   14.7654 nr      1  lig       0.140060
     13 C_0c          5.8898    0.3836   15.5035 cj      1  lig      -0.360074
     14 C_0d          5.5715   -0.5089   16.5177 ck      1  lig       0.022779
     15 N_0e          4.3818   -1.0543   16.3920 nw      1  lig      -0.530579
     16 C_0f          3.8330   -0.4170   15.3252 cm      1  lig       0.413722
     17 C_0g          2.6564    2.1560   12.1340 cn      1  lig      -0.007932
     18 C_0h          3.5566    2.6280   11.1666 co      1  lig      -0.119710
     19 C_0i          3.1294    3.4499   10.1277 cq      1  lig      -0.238532
     20 C_0j          1.7879    3.8078   10.0318 cr      1  lig       0.088811
     21 C_0k          1.3278    4.6785    8.9004 cs      1  lig      -0.239767
     22 C_0l          0.8660    3.3707   10.9895 ct      1  lig      -0.069118
     23 C_0m          1.3140    2.5576   12.0419 cw      1  lig      -0.103169
     24 C_0n         -0.5782    3.7649   10.8956 cA      1  lig       0.635274
     25 O_0o         -1.4474    3.1358   10.2993 o1      1  lig      -0.555857
     26 N_0p         -0.8250    4.9023   11.5462 nA      1  lig      -0.735469
     27 C_0q         -0.5664   -0.8256   14.2115 cB      1  lig      -0.063837
     28 C_0r         -1.9389   -1.0760   14.0580 cC      1  lig       0.141269
     29 O_0s         -2.6991   -0.3051   13.2023 o2      1  lig      -0.253650
     30 C_0t         -2.0021    0.6747   12.5252 cD      1  lig      -0.089467
     31 H_0u         -3.7566   -4.0728   13.5537 h0      1  lig       0.071817
     32 H_0v         -4.0132   -2.5700   12.6504 h6      1  lig       0.071817
     33 H_0w         -5.3313   -3.2764   13.5862 h7      1  lig       0.071817
     34 H_0x         -2.2100   -3.6528   16.2607 h8      1  lig       0.159375
     35 H_0y          0.1911   -3.2101   16.5029 h9      1  lig       0.187447
     36 H_0z          2.0245   -1.8852   16.0481 hb      1  lig       0.224979
     37 H_10          5.1701    2.0029   13.3719 hd      1  lig       0.194193
     38 H_11          6.7656    0.9739   15.2896 he      1  lig       0.230550
     39 H_12          6.2090   -0.8330   17.3300 hf      1  lig       0.171508
     40 H_13          4.5935    2.3310   11.2004 hg      1  lig       0.140875
     41 H_14          3.8342    3.7938    9.3845 hh      1  lig       0.166908
     42 H_15          0.2554    4.8524    8.9886 hi      1  lig       0.088871
     43 H_16          1.5389    4.1839    7.9522 hj      1  lig       0.088871
     44 H_17          1.8548    5.6319    8.9381 hk      1  lig       0.088871
     45 H_18          0.6052    2.2126   12.7809 hl      1  lig       0.091718
     46 H_19         -1.7254    5.3545   11.6162 hm      1  lig       0.337083
     47 H_1a         -0.1417    5.4508   12.0485 hq      1  lig       0.337083
     48 H_1b         -0.1546   -0.0169   13.6336 hr      1  lig       0.005063
     49 H_1c         -2.6852    1.2258   11.8789 ht      1  lig       0.099772
     50 H_1d         -1.2220    0.2132   11.9198 hu      1  lig       0.099772
     51 H_1e         -1.5484    1.3591   13.2421 hv      1  lig       0.099772
@<TRIPOS>BOND
     1     1     2    1
     2     1    31    1
     3     1    32    1
     4     1    33    1
     5     2     3    1
     6     3     4    2
     7     3    28    1
     8     4     5    1
     9     4    34    1
    10     5     6    2
    11     5    35    1
    12     6     7    1
    13     6    27    1
    14     7     8    1
    15     7    36    1
    16     8     9    2
    17     8    16    1
    18     9    10    1
    19    10    11    2
    20    10    17    1
    21    11    12    1
    22    11    37    1
    23    12    13    1
    24    12    16    1
    25    13    14    2
    26    13    38    1
    27    14    15    1
    28    14    39    1
    29    15    16    2
    30    17    18    2
    31    17    23    1
    32    18    19    1
    33    18    40    1
    34    19    20    2
    35    19    41    1
    36    20    21    1
    37    20    22    1
    38    21    42    1
    39    21    43    1
    40    21    44    1
    41    22    23    2
    42    22    24    1
    43    23    45    1
    44    24    25    2
    45    24    26    1
    46    26    46    1
    47    26    47    1
    48    27    28    2
    49    27    48    1
    50    28    29    1
    51    29    30    1
    52    30    49    1
    53    30    50    1
    54    30    51    1
