@<TRIPOS>MOLECULE
lig
  47   51 0 0 0
SMALL
NO_CHARGES


@<TRIPOS>ATOM
      1 C_00         -4.2567   -3.1043   13.5693 c4      1  lig       0.003718
      2 O_01         -3.8736   -2.3603   14.7157 o0      1  lig      -0.373997
      3 C_02         -2.5257   -2.1109   14.8170 c5      1  lig       0.160979
      4 C_03         -1.7457   -2.8699   15.6819 c6      1  lig      -0.126527
      5 C_04         -0.3904   -2.6103   15.8138 c7      1  lig      -0.318951
      6 C_05          0.2205   -1.5845   15.0866 c8      1  lig       0.002402
      7 N_06          1.6039   -1.3601   15.3216 n0      1  lig      -0.124812
      8 C_07          2.5369   -0.4474   14.7595 c9      1  lig       0.019460
      9 N_08          2.1817    0.3719   13.7240 ng      1  lig      -0.089328
     10 C_09          3.1138    1.2387   13.2179 cb      1  lig       0.023163
     11 C_0a          4.4187    1.2840   13.7027 ci      1  lig      -0.220134
     12 N_0b          4.7466    0.4880   14.7600 nr      1  lig       0.127023
     13 C_0c          5.8977    0.3770   15.4865 cj      1  lig      -0.364885
     14 C_0d          5.5876   -0.5233   16.5295 ck      1  lig       0.030169
     15 N_0e          4.3760   -1.0434   16.3734 nw      1  lig      -0.534366
     16 C_0f          3.8370   -0.3940   15.3257 cm      1  lig       0.409879
     17 C_0g          2.6359    2.1614   12.1223 cn      1  lig      -0.057335
     18 C_0h          1.3054    2.6314   12.1303 co      1  lig      -0.091063
     19 C_0i          0.8262    3.5165   11.1628 cq      1  lig      -0.359641
     20 C_0j          1.7006    3.9330   10.1707 cr      1  lig       0.473878
     21 N_0k          1.4948    4.8131    9.1162 nA      1  lig      -0.610712
     22 C_0l          2.6280    4.8521    8.4793 cs      1  lig       0.231272
     23 N_0m          3.5731    4.0579    9.0246 nB      1  lig      -0.422201
     24 C_0n          3.0312    3.4473   10.1317 ct      1  lig       0.069472
     25 C_0o          3.5261    2.5537   11.0860 cw      1  lig      -0.234140
     26 C_0p         -0.5552   -0.8189   14.1920 cA      1  lig      -0.036807
     27 C_0q         -1.9445   -1.0884   14.0613 cB      1  lig       0.128787
     28 O_0r         -2.7533   -0.3562   13.2050 o1      1  lig      -0.222919
     29 C_0s         -2.2327    0.6448   12.3521 cC      1  lig      -0.118492
     30 H_0t         -5.3358   -3.2523   13.5866 h0      1  lig       0.065175
     31 H_0u         -3.7891   -4.0896   13.5591 h6      1  lig       0.065175
     32 H_0v         -4.0124   -2.5806   12.6438 h7      1  lig       0.065175
     33 H_0w         -2.1936   -3.6623   16.2628 h8      1  lig       0.157882
     34 H_0x          0.1988   -3.2068   16.4980 h9      1  lig       0.190558
     35 H_0y          1.9908   -1.9341   16.0530 hb      1  lig       0.223943
     36 H_0z          5.1808    1.9634   13.3425 hd      1  lig       0.184952
     37 H_10          6.7856    0.9484   15.2760 he      1  lig       0.229633
     38 H_11          6.2287   -0.7926   17.3523 hf      1  lig       0.168483
     39 H_12          0.6366    2.3172   12.9226 hg      1  lig       0.130005
     40 H_13         -0.1813    3.8713   11.1916 hh      1  lig       0.194914
     41 H_14          2.8538    5.4380    7.6007 hi      1  lig       0.146005
     42 H_15          4.5054    3.9747    8.6412 hj      1  lig       0.351821
     43 H_16          4.5263    2.1799   11.0411 hk      1  lig       0.169733
     44 H_17         -0.1081   -0.0326   13.6249 hl      1  lig      -0.030594
     45 H_18         -3.0507    1.0730   11.7701 hm      1  lig       0.104416
     46 H_19         -1.5099    0.2344   11.6497 hq      1  lig       0.104416
     47 H_1a         -1.7820    1.4500   12.9277 hr      1  lig       0.104416
@<TRIPOS>BOND
     1     1     2    1
     2     1    30    1
     3     1    31    1
     4     1    32    1
     5     2     3    1
     6     3     4    2
     7     3    27    1
     8     4     5    1
     9     4    33    1
    10     5     6    2
    11     5    34    1
    12     6     7    1
    13     6    26    1
    14     7     8    1
    15     7    35    1
    16     8     9    2
    17     8    16    1
    18     9    10    1
    19    10    11    2
    20    10    17    1
    21    11    12    1
    22    11    36    1
    23    12    13    1
    24    12    16    1
    25    13    14    2
    26    13    37    1
    27    14    15    1
    28    14    38    1
    29    15    16    2
    30    17    18    2
    31    17    25    1
    32    18    19    1
    33    18    39    1
    34    19    20    2
    35    19    40    1
    36    20    21    1
    37    20    24    1
    38    21    22    2
    39    22    23    1
    40    22    41    1
    41    23    24    1
    42    23    42    1
    43    24    25    2
    44    25    43    1
    45    26    27    2
    46    26    44    1
    47    27    28    1
    48    28    29    1
    49    29    45    1
    50    29    46    1
    51    29    47    1
