@<TRIPOS>MOLECULE
lig
  52   55 0 0 0
SMALL
NO_CHARGES


@<TRIPOS>ATOM
      1 C_00         -4.2561   -3.1063   13.5675 c4      1  lig      -0.029951
      2 O_01         -3.8710   -2.3586   14.7108 o0      1  lig      -0.374864
      3 C_02         -2.5237   -2.1120   14.8115 c5      1  lig       0.161351
      4 C_03         -1.7479   -2.8731   15.6758 c6      1  lig      -0.134429
      5 C_04         -0.3907   -2.6159   15.8114 c7      1  lig      -0.311257
      6 C_05          0.2188   -1.5872   15.0906 c8      1  lig      -0.003709
      7 N_06          1.6061   -1.3639   15.3275 n0      1  lig      -0.128546
      8 C_07          2.5365   -0.4468   14.7698 c9      1  lig       0.014948
      9 N_08          2.1734    0.3862   13.7543 ng      1  lig      -0.081978
     10 C_09          3.1090    1.2399   13.2318 cb      1  lig       0.005213
     11 C_0a          4.4091    1.2828   13.7040 ci      1  lig      -0.242037
     12 N_0b          4.7384    0.4983   14.7655 nr      1  lig       0.142610
     13 C_0c          5.8943    0.3897   15.4869 cj      1  lig      -0.367226
     14 C_0d          5.5998   -0.5422   16.5164 ck      1  lig       0.024398
     15 N_0e          4.3902   -1.0596   16.3683 nw      1  lig      -0.533417
     16 C_0f          3.8368   -0.3957   15.3337 cm      1  lig       0.412141
     17 C_0g          2.6487    2.1497   12.1257 cn      1  lig      -0.030359
     18 C_0h          3.5566    2.6396   11.1692 co      1  lig      -0.165769
     19 C_0i          3.1227    3.4570   10.1283 cq      1  lig      -0.198782
     20 C_0j          1.7703    3.8176   10.0234 cr      1  lig       0.209394
     21 O_0k          1.3292    4.6020    8.9846 o1      1  lig      -0.239725
     22 C_0l          2.1136    5.6875    8.5183 cs      1  lig      -0.048461
     23 C_0m          0.8614    3.3613   10.9917 ct      1  lig      -0.074439
     24 C_0n          1.3049    2.5285   12.0328 cw      1  lig      -0.056435
     25 C_0o         -0.6146    3.7607   10.8922 cA      1  lig       0.544771
     26 O_0p         -1.0753    4.3040    9.8978 o2      1  lig      -0.540313
     27 N_0q         -1.3527    3.4740   11.9629 nA      1  lig      -0.791767
     28 C_0r         -0.5555   -0.8165   14.1949 cB      1  lig      -0.057663
     29 C_0s         -1.9469   -1.0910   14.0631 cC      1  lig       0.151999
     30 O_0t         -2.7598   -0.3552   13.2170 o3      1  lig      -0.248366
     31 C_0u         -2.2311    0.6451   12.3776 cD      1  lig      -0.118361
     32 H_0v         -5.3364   -3.2553   13.5856 h0      1  lig       0.077016
     33 H_0w         -3.7839   -4.0901   13.5556 h6      1  lig       0.077016
     34 H_0x         -4.0101   -2.5845   12.6407 h7      1  lig       0.077016
     35 H_0y         -2.2034   -3.6660   16.2562 h8      1  lig       0.158894
     36 H_0z          0.1971   -3.2189   16.4942 h9      1  lig       0.188037
     37 H_10          2.0037   -1.9659   16.0267 hb      1  lig       0.227028
     38 H_11          5.1760    1.9362   13.3182 hd      1  lig       0.189645
     39 H_12          6.7838    0.9709   15.2741 he      1  lig       0.231580
     40 H_13          6.2446   -0.8293   17.3211 hf      1  lig       0.171488
     41 H_14          4.6039    2.3672   11.2287 hg      1  lig       0.160017
     42 H_15          3.8363    3.8116    9.4024 hh      1  lig       0.141790
     43 H_16          1.5354    6.2089    7.7566 hi      1  lig       0.081086
     44 H_17          3.0460    5.3492    8.0564 hj      1  lig       0.081086
     45 H_18          2.3213    6.4278    9.2942 hk      1  lig       0.081086
     46 H_19          0.6057    2.1603   12.7711 hl      1  lig       0.089249
     47 H_1a         -2.3373    3.7022   11.9713 hm      1  lig       0.371552
     48 H_1b         -0.9395    3.0411   12.7709 hq      1  lig       0.371552
     49 H_1c         -0.1099   -0.0241   13.6351 hr      1  lig      -0.003661
     50 H_1d         -3.0414    1.0912   11.7946 ht      1  lig       0.113184
     51 H_1e         -1.4766    0.2728   11.6770 hu      1  lig       0.113184
     52 H_1f         -1.8063    1.4100   13.0251 hv      1  lig       0.113184
@<TRIPOS>BOND
     1     1     2    1
     2     1    32    1
     3     1    33    1
     4     1    34    1
     5     2     3    1
     6     3     4    2
     7     3    29    1
     8     4     5    1
     9     4    35    1
    10     5     6    2
    11     5    36    1
    12     6     7    1
    13     6    28    1
    14     7     8    1
    15     7    37    1
    16     8     9    2
    17     8    16    1
    18     9    10    1
    19    10    11    2
    20    10    17    1
    21    11    12    1
    22    11    38    1
    23    12    13    1
    24    12    16    1
    25    13    14    2
    26    13    39    1
    27    14    15    1
    28    14    40    1
    29    15    16    2
    30    17    18    2
    31    17    24    1
    32    18    19    1
    33    18    41    1
    34    19    20    2
    35    19    42    1
    36    20    21    1
    37    20    23    1
    38    21    22    1
    39    22    43    1
    40    22    44    1
    41    22    45    1
    42    23    24    2
    43    23    25    1
    44    24    46    1
    45    25    26    2
    46    25    27    1
    47    27    47    1
    48    27    48    1
    49    28    29    2
    50    28    49    1
    51    29    30    1
    52    30    31    1
    53    31    50    1
    54    31    51    1
    55    31    52    1
