@<TRIPOS>MOLECULE
lig
  50   54 0 0 0
SMALL
NO_CHARGES


@<TRIPOS>ATOM
      1 C_00         -4.2567   -3.1059   13.5673 c4      1  lig      -0.005378
      2 O_01         -3.8729   -2.3613   14.7130 o0      1  lig      -0.373401
      3 C_02         -2.5249   -2.1099   14.8153 c5      1  lig       0.155445
      4 C_03         -1.7517   -2.8690   15.6822 c6      1  lig      -0.122009
      5 C_04         -0.3919   -2.6091   15.8186 c7      1  lig      -0.321605
      6 C_05          0.2189   -1.5847   15.0927 c8      1  lig       0.002721
      7 N_06          1.6018   -1.3585   15.3330 n0      1  lig      -0.126991
      8 C_07          2.5269   -0.4362   14.7717 c9      1  lig       0.026904
      9 N_08          2.1589    0.3947   13.7415 ng      1  lig      -0.095047
     10 C_09          3.1051    1.2383   13.2191 cb      1  lig      -0.006901
     11 C_0a          4.4090    1.2795   13.7014 ci      1  lig      -0.229451
     12 N_0b          4.7388    0.4912   14.7576 nr      1  lig       0.135957
     13 C_0c          5.8975    0.3852   15.4842 cj      1  lig      -0.367714
     14 C_0d          5.5969   -0.5378   16.5183 ck      1  lig       0.030334
     15 N_0e          4.3825   -1.0459   16.3661 nw      1  lig      -0.536296
     16 C_0f          3.8333   -0.3893   15.3272 cm      1  lig       0.409155
     17 C_0g          2.6571    2.1471   12.1112 cn      1  lig      -0.018884
     18 C_0h          3.5899    2.6392   11.1753 co      1  lig      -0.109145
     19 C_0i          3.2345    3.5009   10.1325 cq      1  lig      -0.258506
     20 C_0j          1.8924    3.8376   10.0551 cr      1  lig       0.070317
     21 C_0k          0.9171    3.3423   10.9725 cs      1  lig      -0.028214
     22 C_0l         -0.3038    3.9315   10.5288 ct      1  lig       0.029021
     23 N_0m         -0.0986    4.6050    9.4408 nA      1  lig      -0.457033
     24 N_0n          1.1962    4.6448    9.1980 nB      1  lig       0.206210
     25 C_0o          1.7045    5.4754    8.0961 cw      1  lig      -0.064232
     26 C_0p          1.3025    2.4943   12.0076 cA      1  lig      -0.109424
     27 C_0q         -0.5544   -0.8156   14.1936 cB      1  lig      -0.028516
     28 C_0r         -1.9395   -1.0837   14.0623 cC      1  lig       0.124299
     29 O_0s         -2.7429   -0.3421   13.2117 o1      1  lig      -0.207498
     30 C_0t         -2.2131    0.6368   12.3357 cD      1  lig      -0.148818
     31 H_0u         -5.3375   -3.2479   13.5825 h0      1  lig       0.068313
     32 H_0v         -3.7907   -4.0919   13.5609 h6      1  lig       0.068313
     33 H_0w         -4.0043   -2.5870   12.6413 h7      1  lig       0.068313
     34 H_0x         -2.2103   -3.6575   16.2628 h8      1  lig       0.158366
     35 H_0y          0.1961   -3.2002   16.5072 h9      1  lig       0.191867
     36 H_0z          1.9973   -1.9477   16.0590 hb      1  lig       0.224313
     37 H_10          5.1715    1.9507   13.3355 hd      1  lig       0.190511
     38 H_11          6.7782    0.9732   15.2765 he      1  lig       0.230718
     39 H_12          6.2398   -0.8227   17.3413 hf      1  lig       0.168914
     40 H_13          4.6155    2.3316   11.2554 hg      1  lig       0.135451
     41 H_14          3.9649    3.8698    9.4220 hh      1  lig       0.162852
     42 H_15         -1.2802    3.8493   10.9568 hi      1  lig       0.152681
     43 H_16          2.1994    4.8389    7.3819 hj      1  lig       0.062646
     44 H_17          2.4134    6.2165    8.4892 hk      1  lig       0.062646
     45 H_18          0.9332    5.9474    7.4753 hl      1  lig       0.062646
     46 H_19          0.5767    2.1227   12.7182 hm      1  lig       0.121567
     47 H_1a         -0.1144   -0.0216   13.6244 hq      1  lig      -0.032594
     48 H_1b         -3.0360    1.0624   11.7579 hr      1  lig       0.109059
     49 H_1c         -1.5052    0.1989   11.6324 ht      1  lig       0.109059
     50 H_1d         -1.7487    1.4445   12.8985 hu      1  lig       0.109059
@<TRIPOS>BOND
     1     1     2    1
     2     1    31    1
     3     1    32    1
     4     1    33    1
     5     2     3    1
     6     3     4    2
     7     3    28    1
     8     4     5    1
     9     4    34    1
    10     5     6    2
    11     5    35    1
    12     6     7    1
    13     6    27    1
    14     7     8    1
    15     7    36    1
    16     8     9    2
    17     8    16    1
    18     9    10    1
    19    10    11    2
    20    10    17    1
    21    11    12    1
    22    11    37    1
    23    12    13    1
    24    12    16    1
    25    13    14    2
    26    13    38    1
    27    14    15    1
    28    14    39    1
    29    15    16    2
    30    17    18    2
    31    17    26    1
    32    18    19    1
    33    18    40    1
    34    19    20    2
    35    19    41    1
    36    20    21    1
    37    20    24    1
    38    21    22    1
    39    21    26    2
    40    22    23    2
    41    22    42    1
    42    23    24    1
    43    24    25    1
    44    25    43    1
    45    25    44    1
    46    25    45    1
    47    26    46    1
    48    27    28    2
    49    27    47    1
    50    28    29    1
    51    29    30    1
    52    30    48    1
    53    30    49    1
    54    30    50    1
