@<TRIPOS>MOLECULE
lig
  50   54 0 0 0
SMALL
NO_CHARGES


@<TRIPOS>ATOM
      1 C_00         -4.2568   -3.1054   13.5684 c4      1  lig       0.005760
      2 O_01         -3.8727   -2.3625   14.7149 o0      1  lig      -0.373539
      3 C_02         -2.5248   -2.1122   14.8155 c5      1  lig       0.160262
      4 C_03         -1.7475   -2.8704   15.6805 c6      1  lig      -0.120051
      5 C_04         -0.3908   -2.6105   15.8142 c7      1  lig      -0.322515
      6 C_05          0.2212   -1.5850   15.0876 c8      1  lig       0.004939
      7 N_06          1.6034   -1.3608   15.3283 n0      1  lig      -0.126616
      8 C_07          2.5312   -0.4403   14.7667 c9      1  lig       0.030744
      9 N_08          2.1675    0.3842   13.7368 ng      1  lig      -0.098064
     10 C_09          3.1076    1.2383   13.2220 cb      1  lig       0.008635
     11 C_0a          4.4125    1.2788   13.7032 ci      1  lig      -0.220807
     12 N_0b          4.7426    0.4894   14.7579 nr      1  lig       0.135501
     13 C_0c          5.8974    0.3808   15.4860 cj      1  lig      -0.364212
     14 C_0d          5.5940   -0.5330   16.5234 ck      1  lig       0.030645
     15 N_0e          4.3802   -1.0455   16.3684 nw      1  lig      -0.531324
     16 C_0f          3.8358   -0.3914   15.3289 cm      1  lig       0.404729
     17 C_0g          2.6478    2.1536   12.1231 cn      1  lig      -0.036311
     18 C_0h          3.5652    2.6370   11.1626 co      1  lig      -0.141675
     19 C_0i          3.1327    3.4633   10.1244 cq      1  lig      -0.238382
     20 C_0j          1.7965    3.8161   10.0403 cr      1  lig       0.279966
     21 O_0k          1.4003    4.6403    9.0163 o1      1  lig      -0.369734
     22 C_0l          0.0245    4.4666    8.5995 cs      1  lig       0.094517
     23 C_0m         -1.0306    4.3224    9.7544 ct      1  lig       0.585795
     24 O_0n         -2.2095    4.6594    9.6693 o2      1  lig      -0.588484
     25 N_0o         -0.4630    3.7540   10.8496 nA      1  lig      -0.345100
     26 C_0p          0.8760    3.3777   10.9729 cw      1  lig      -0.016011
     27 C_0q          1.2936    2.5512   12.0256 cA      1  lig      -0.121991
     28 C_0r         -0.5545   -0.8186   14.1904 cB      1  lig      -0.021857
     29 C_0s         -1.9414   -1.0869   14.0597 cC      1  lig       0.111808
     30 O_0t         -2.7479   -0.3495   13.2074 o3      1  lig      -0.197141
     31 C_0u         -2.2257    0.6484   12.3503 cD      1  lig      -0.130033
     32 H_0v         -5.3364   -3.2530   13.5862 h0      1  lig       0.065448
     33 H_0w         -3.7871   -4.0896   13.5579 h6      1  lig       0.065448
     34 H_0x         -4.0111   -2.5827   12.6426 h7      1  lig       0.065448
     35 H_0y         -2.2013   -3.6605   16.2619 h8      1  lig       0.159189
     36 H_0z          0.1985   -3.2029   16.5011 h9      1  lig       0.193519
     37 H_10          1.9936   -1.9428   16.0565 hb      1  lig       0.224056
     38 H_11          5.1741    1.9556   13.3388 hd      1  lig       0.192634
     39 H_12          6.7812    0.9637   15.2765 he      1  lig       0.231560
     40 H_13          6.2349   -0.8119   17.3458 hf      1  lig       0.170569
     41 H_14          4.6048    2.3508   11.2165 hg      1  lig       0.144628
     42 H_15          3.8336    3.8213    9.3866 hh      1  lig       0.170298
     43 H_16         -0.2884    5.2770    7.9386 hi      1  lig       0.075112
     44 H_17         -0.0356    3.5427    8.0188 hj      1  lig       0.075112
     45 H_18         -1.0932    3.5716   11.6149 hk      1  lig       0.290180
     46 H_19          0.5806    2.2143   12.7659 hl      1  lig       0.127334
     47 H_1a         -0.1112   -0.0266   13.6222 hm      1  lig      -0.044678
     48 H_1b         -3.0472    1.0725   11.7697 hq      1  lig       0.101563
     49 H_1c         -1.5042    0.2337   11.6479 hr      1  lig       0.101563
     50 H_1d         -1.7772    1.4543   12.9275 ht      1  lig       0.101563
@<TRIPOS>BOND
     1     1     2    1
     2     1    32    1
     3     1    33    1
     4     1    34    1
     5     2     3    1
     6     3     4    2
     7     3    29    1
     8     4     5    1
     9     4    35    1
    10     5     6    2
    11     5    36    1
    12     6     7    1
    13     6    28    1
    14     7     8    1
    15     7    37    1
    16     8     9    2
    17     8    16    1
    18     9    10    1
    19    10    11    2
    20    10    17    1
    21    11    12    1
    22    11    38    1
    23    12    13    1
    24    12    16    1
    25    13    14    2
    26    13    39    1
    27    14    15    1
    28    14    40    1
    29    15    16    2
    30    17    18    2
    31    17    27    1
    32    18    19    1
    33    18    41    1
    34    19    20    2
    35    19    42    1
    36    20    21    1
    37    20    26    1
    38    21    22    1
    39    22    23    1
    40    22    43    1
    41    22    44    1
    42    23    24    2
    43    23    25    1
    44    25    26    1
    45    25    45    1
    46    26    27    2
    47    27    46    1
    48    28    29    2
    49    28    47    1
    50    29    30    1
    51    30    31    1
    52    31    48    1
    53    31    49    1
    54    31    50    1
