@<TRIPOS>MOLECULE
lig
  50   54 0 0 0
SMALL
NO_CHARGES


@<TRIPOS>ATOM
      1 C_00         -4.2554   -3.1070   13.5667 c4      1  lig       0.014123
      2 O_01         -3.8739   -2.3555   14.7096 o0      1  lig      -0.374226
      3 C_02         -2.5267   -2.1066   14.8132 c5      1  lig       0.168067
      4 C_03         -1.7520   -2.8715   15.6749 c6      1  lig      -0.127803
      5 C_04         -0.3933   -2.6145   15.8117 c7      1  lig      -0.326795
      6 C_05          0.2196   -1.5878   15.0897 c8      1  lig       0.003722
      7 N_06          1.6042   -1.3666   15.3298 n0      1  lig      -0.114535
      8 C_07          2.5249   -0.4338   14.7828 c9      1  lig       0.034138
      9 N_08          2.1518    0.4044   13.7691 ng      1  lig      -0.102467
     10 C_09          3.0983    1.2388   13.2332 cb      1  lig       0.008121
     11 C_0a          4.4000    1.2764   13.7009 ci      1  lig      -0.228282
     12 N_0b          4.7368    0.4928   14.7596 nr      1  lig       0.144540
     13 C_0c          5.8926    0.3911   15.4808 cj      1  lig      -0.369247
     14 C_0d          5.6027   -0.5483   16.5053 ck      1  lig       0.036791
     15 N_0e          4.3885   -1.0602   16.3544 nw      1  lig      -0.527732
     16 C_0f          3.8325   -0.3883   15.3309 cm      1  lig       0.393859
     17 C_0g          2.6407    2.1399   12.1271 cn      1  lig      -0.028625
     18 C_0h          3.5584    2.6399   11.1674 co      1  lig      -0.134176
     19 C_0i          3.1117    3.4654   10.1220 cq      1  lig      -0.248865
     20 C_0j          1.7626    3.8038   10.0403 cr      1  lig       0.060812
     21 N_0k          1.2975    4.6116    9.0072 nA      1  lig      -0.404697
     22 C_0l         -0.0065    4.8513    8.7182 cs      1  lig       0.607645
     23 O_0m         -0.4123    5.6311    7.8553 o1      1  lig      -0.589441
     24 C_0n         -0.9274    3.9668    9.6249 ct      1  lig       0.056399
     25 O_0o         -0.4391    3.7019   10.9584 o2      1  lig      -0.359552
     26 C_0p          0.8806    3.3365   10.9991 cw      1  lig       0.222395
     27 C_0q          1.2955    2.5129   12.0280 cA      1  lig      -0.145622
     28 C_0r         -0.5548   -0.8136   14.1938 cB      1  lig      -0.018971
     29 C_0s         -1.9407   -1.0774   14.0650 cC      1  lig       0.122601
     30 O_0t         -2.7433   -0.3209   13.2263 o3      1  lig      -0.222102
     31 C_0u         -2.1991    0.3702   12.1141 cD      1  lig      -0.094822
     32 H_0v         -5.3362   -3.2511   13.5814 h0      1  lig       0.061594
     33 H_0w         -3.7862   -4.0919   13.5584 h6      1  lig       0.061594
     34 H_0x         -4.0024   -2.5902   12.6400 h7      1  lig       0.061594
     35 H_0y         -2.2087   -3.6617   16.2534 h8      1  lig       0.159098
     36 H_0z          0.1948   -3.2083   16.4987 h9      1  lig       0.196003
     37 H_10          1.9997   -1.9671   16.0417 hb      1  lig       0.216091
     38 H_11          5.1597    1.9397   13.3158 hd      1  lig       0.195772
     39 H_12          6.7704    0.9889   15.2738 he      1  lig       0.230067
     40 H_13          6.2524   -0.8465   17.3109 hf      1  lig       0.167545
     41 H_14          4.6017    2.3682   11.2211 hg      1  lig       0.139878
     42 H_15          3.8116    3.8283    9.3793 hh      1  lig       0.180496
     43 H_16          1.9664    5.0550    8.3957 hi      1  lig       0.323238
     44 H_17         -1.0255    3.0007    9.1213 hj      1  lig       0.085926
     45 H_18         -1.9053    4.4356    9.6360 hk      1  lig       0.085926
     46 H_19          0.5824    2.1742   12.7618 hl      1  lig       0.150312
     47 H_1a         -0.1140   -0.0195   13.6280 hm      1  lig      -0.056014
     48 H_1b         -3.0255    0.8261   11.5653 hq      1  lig       0.095209
     49 H_1c         -1.6971   -0.3166   11.4335 hr      1  lig       0.095209
     50 H_1d         -1.5230    1.1664   12.4132 ht      1  lig       0.095209
@<TRIPOS>BOND
     1     1     2    1
     2     1    32    1
     3     1    33    1
     4     1    34    1
     5     2     3    1
     6     3     4    2
     7     3    29    1
     8     4     5    1
     9     4    35    1
    10     5     6    2
    11     5    36    1
    12     6     7    1
    13     6    28    1
    14     7     8    1
    15     7    37    1
    16     8     9    2
    17     8    16    1
    18     9    10    1
    19    10    11    2
    20    10    17    1
    21    11    12    1
    22    11    38    1
    23    12    13    1
    24    12    16    1
    25    13    14    2
    26    13    39    1
    27    14    15    1
    28    14    40    1
    29    15    16    2
    30    17    18    2
    31    17    27    1
    32    18    19    1
    33    18    41    1
    34    19    20    2
    35    19    42    1
    36    20    21    1
    37    20    26    1
    38    21    22    1
    39    21    43    1
    40    22    23    2
    41    22    24    1
    42    24    25    1
    43    24    44    1
    44    24    45    1
    45    25    26    1
    46    26    27    2
    47    27    46    1
    48    28    29    2
    49    28    47    1
    50    29    30    1
    51    30    31    1
    52    31    48    1
    53    31    49    1
    54    31    50    1
