@<TRIPOS>MOLECULE
lig
  47   51 0 0 0
SMALL
NO_CHARGES


@<TRIPOS>ATOM
      1 C_00         -4.2567   -3.1041   13.5694 c4      1  lig      -0.004689
      2 O_01         -3.8737   -2.3599   14.7156 o0      1  lig      -0.372749
      3 C_02         -2.5258   -2.1107   14.8171 c5      1  lig       0.152740
      4 C_03         -1.7454   -2.8698   15.6820 c6      1  lig      -0.120297
      5 C_04         -0.3904   -2.6103   15.8138 c7      1  lig      -0.321494
      6 C_05          0.2204   -1.5845   15.0865 c8      1  lig       0.001545
      7 N_06          1.6042   -1.3599   15.3206 n0      1  lig      -0.127117
      8 C_07          2.5373   -0.4464   14.7592 c9      1  lig       0.025781
      9 N_08          2.1833    0.3714   13.7220 ng      1  lig      -0.090128
     10 C_09          3.1157    1.2390   13.2179 cb      1  lig      -0.010076
     11 C_0a          4.4197    1.2848   13.7036 ci      1  lig      -0.232454
     12 N_0b          4.7466    0.4890   14.7613 nr      1  lig       0.137501
     13 C_0c          5.8976    0.3767   15.4867 cj      1  lig      -0.366986
     14 C_0d          5.5868   -0.5220   16.5302 ck      1  lig       0.030490
     15 N_0e          4.3755   -1.0422   16.3738 nw      1  lig      -0.536066
     16 C_0f          3.8369   -0.3923   15.3263 cm      1  lig       0.408653
     17 C_0g          2.6420    2.1628   12.1182 cn      1  lig      -0.011253
     18 C_0h          3.5476    2.6405   11.1603 co      1  lig      -0.091370
     19 C_0i          3.1538    3.4680   10.0985 cq      1  lig      -0.280665
     20 C_0j          1.8053    3.8044   10.0318 cr      1  lig       0.098741
     21 N_0k          1.0883    4.5643    9.1320 nA      1  lig      -0.079944
     22 N_0l         -0.2025    4.6328    9.4561 nB      1  lig      -0.446263
     23 C_0m         -0.3779    3.9489   10.5598 cs      1  lig       0.081600
     24 C_0n          0.8670    3.3654   10.9941 ct      1  lig       0.011080
     25 C_0o          1.2880    2.5471   12.0527 cw      1  lig      -0.133624
     26 C_0p         -0.5552   -0.8189   14.1923 cA      1  lig      -0.027921
     27 C_0q         -1.9451   -1.0886   14.0616 cB      1  lig       0.126016
     28 O_0r         -2.7540   -0.3570   13.2047 o1      1  lig      -0.204798
     29 C_0s         -2.2335    0.6444   12.3522 cC      1  lig      -0.155871
     30 H_0t         -5.3357   -3.2522   13.5867 h0      1  lig       0.068022
     31 H_0u         -3.7893   -4.0896   13.5592 h6      1  lig       0.068022
     32 H_0v         -4.0126   -2.5804   12.6439 h7      1  lig       0.068022
     33 H_0w         -2.1927   -3.6625   16.2629 h8      1  lig       0.158236
     34 H_0x          0.1988   -3.2074   16.4977 h9      1  lig       0.191668
     35 H_0y          1.9904   -1.9330   16.0525 hb      1  lig       0.225157
     36 H_0z          5.1817    1.9635   13.3434 hd      1  lig       0.191524
     37 H_10          6.7861    0.9464   15.2759 he      1  lig       0.230526
     38 H_11          6.2273   -0.7901   17.3528 hf      1  lig       0.168876
     39 H_12          4.5880    2.3444   11.2252 hg      1  lig       0.131659
     40 H_13          3.8539    3.8134    9.3727 hh      1  lig       0.171041
     41 H_14          1.4372    5.0378    8.3060 hi      1  lig       0.310476
     42 H_15         -1.3472    3.8635   11.0272 hj      1  lig       0.137280
     43 H_16          0.5928    2.2220   12.7999 hk      1  lig       0.119996
     44 H_17         -0.1077   -0.0333   13.6254 hl      1  lig      -0.032006
     45 H_18         -3.0510    1.0731   11.7700 hm      1  lig       0.110373
     46 H_19         -1.5105    0.2345   11.6498 hq      1  lig       0.110373
     47 H_1a         -1.7824    1.4497   12.9275 hr      1  lig       0.110373
@<TRIPOS>BOND
     1     1     2    1
     2     1    30    1
     3     1    31    1
     4     1    32    1
     5     2     3    1
     6     3     4    2
     7     3    27    1
     8     4     5    1
     9     4    33    1
    10     5     6    2
    11     5    34    1
    12     6     7    1
    13     6    26    1
    14     7     8    1
    15     7    35    1
    16     8     9    2
    17     8    16    1
    18     9    10    1
    19    10    11    2
    20    10    17    1
    21    11    12    1
    22    11    36    1
    23    12    13    1
    24    12    16    1
    25    13    14    2
    26    13    37    1
    27    14    15    1
    28    14    38    1
    29    15    16    2
    30    17    18    2
    31    17    25    1
    32    18    19    1
    33    18    39    1
    34    19    20    2
    35    19    40    1
    36    20    21    1
    37    20    24    1
    38    21    22    1
    39    21    41    1
    40    22    23    2
    41    23    24    1
    42    23    42    1
    43    24    25    2
    44    25    43    1
    45    26    27    2
    46    26    44    1
    47    27    28    1
    48    28    29    1
    49    29    45    1
    50    29    46    1
    51    29    47    1
