@<TRIPOS>MOLECULE
lig
  56   61 0 0 0
SMALL
NO_CHARGES


@<TRIPOS>ATOM
      1 C_00         -2.1744    0.6943   12.3856 c4      1  lig      -0.137148
      2 O_01         -2.7023   -0.3474   13.1823 o0      1  lig      -0.251079
      3 C_02         -1.9098   -1.0981   14.0384 c5      1  lig       0.169387
      4 C_03         -0.5310   -0.8294   14.1803 c6      1  lig      -0.036946
      5 C_04          0.2355   -1.5834   15.0946 c7      1  lig      -0.013296
      6 N_05          1.6117   -1.3596   15.3361 n0      1  lig      -0.122257
      7 C_06          2.5319   -0.4372   14.7774 c8      1  lig       0.018957
      8 N_07          2.1598    0.3941   13.7549 ng      1  lig      -0.105040
      9 C_08          3.0944    1.2396   13.2243 c9      1  lig       0.016031
     10 C_09          4.4043    1.2833   13.6944 cb      1  lig      -0.249827
     11 N_0a          4.7385    0.4947   14.7556 nr      1  lig       0.167453
     12 C_0b          5.8973    0.3913   15.4817 ci      1  lig      -0.378388
     13 C_0c          5.5996   -0.5416   16.5121 cj      1  lig       0.037632
     14 N_0d          4.3864   -1.0493   16.3602 nw      1  lig      -0.541669
     15 C_0e          3.8356   -0.3858   15.3271 ck      1  lig       0.404012
     16 C_0f          2.6225    2.1542   12.1213 cm      1  lig      -0.000406
     17 C_0g          3.5396    2.6409   11.1644 cn      1  lig      -0.138300
     18 C_0h          3.1535    3.4630   10.1051 co      1  lig      -0.230909
     19 C_0i          1.8086    3.8199   10.0132 cq      1  lig       0.033383
     20 C_0j          0.9978    4.6054    9.1182 cr      1  lig       0.082479
     21 N_0k         -0.2423    4.6093    9.5224 nA      1  lig      -0.444159
     22 N_0l         -0.3299    3.8832   10.6368 nB      1  lig      -0.084584
     23 C_0m          0.8842    3.3496   10.9964 cs      1  lig       0.042146
     24 C_0n          1.2618    2.5164   12.0586 ct      1  lig      -0.118055
     25 C_0o         -0.3784   -2.5892   15.8339 cw      1  lig      -0.356782
     26 C_0p         -1.7343   -2.8306   15.7168 cA      1  lig      -0.072367
     27 C_0q         -2.5117   -2.0982   14.8261 cB      1  lig       0.123733
     28 N_0r         -3.8736   -2.3467   14.7445 nC      1  lig      -0.454321
     29 C_0s         -4.6489   -2.3804   13.4950 cC      1  lig      -0.035122
     30 C_0t         -5.4028   -3.7252   13.3613 cD      1  lig       0.129225
     31 O_0u         -6.2201   -3.9495   14.5061 o1      1  lig      -0.418214
     32 C_0v         -5.4732   -4.0046   15.7182 cE      1  lig       0.151949
     33 C_0w         -4.7007   -2.7060   15.8980 cF      1  lig      -0.042379
     34 H_0x         -2.9904    1.1363   11.8091 h0      1  lig       0.106881
     35 H_0y         -1.4428    0.2907   11.6870 h6      1  lig       0.106881
     36 H_0z         -1.7364    1.4787   13.0041 h7      1  lig       0.106881
     37 H_10         -0.0893   -0.0406   13.6077 h8      1  lig      -0.014651
     38 H_11          2.0034   -1.9475   16.0618 h9      1  lig       0.234800
     39 H_12          5.1625    1.9521   13.3194 hb      1  lig       0.198735
     40 H_13          6.7773    0.9830   15.2753 hd      1  lig       0.232157
     41 H_14          6.2437   -0.8354   17.3270 he      1  lig       0.168725
     42 H_15          4.5739    2.3509   11.2352 hf      1  lig       0.126686
     43 H_16          3.8782    3.8039    9.3734 hg      1  lig       0.168518
     44 H_17          1.3039    5.1373    8.2326 hh      1  lig       0.138180
     45 H_18         -1.2154    3.7754   11.1065 hi      1  lig       0.314141
     46 H_19          0.5533    2.1677   12.8004 hj      1  lig       0.095174
     47 H_1a          0.2091   -3.1801   16.5238 hk      1  lig       0.194816
     48 H_1b         -2.1890   -3.6122   16.3096 hl      1  lig       0.144071
     49 H_1c         -5.3854   -1.6032   13.4697 hm      1  lig       0.099330
     50 H_1d         -4.0001   -2.2760   12.6217 hq      1  lig       0.099330
     51 H_1e         -6.0319   -3.7256   12.4721 hr      1  lig       0.044942
     52 H_1f         -4.6910   -4.5475   13.2566 ht      1  lig       0.044942
     53 H_1g         -6.1314   -4.1557   16.5745 hu      1  lig       0.032726
     54 H_1h         -4.7486   -4.8187   15.6925 hv      1  lig       0.032726
     55 H_1i         -5.3882   -1.8709   16.0634 hy      1  lig       0.089435
     56 H_1j         -4.1072   -2.7162   16.8113 hz      1  lig       0.089435
@<TRIPOS>BOND
     1     1     2    1
     2     1    34    1
     3     1    35    1
     4     1    36    1
     5     2     3    1
     6     3     4    2
     7     3    27    1
     8     4     5    1
     9     4    37    1
    10     5     6    1
    11     5    25    2
    12     6     7    1
    13     6    38    1
    14     7     8    2
    15     7    15    1
    16     8     9    1
    17     9    10    2
    18     9    16    1
    19    10    11    1
    20    10    39    1
    21    11    12    1
    22    11    15    1
    23    12    13    2
    24    12    40    1
    25    13    14    1
    26    13    41    1
    27    14    15    2
    28    16    17    2
    29    16    24    1
    30    17    18    1
    31    17    42    1
    32    18    19    2
    33    18    43    1
    34    19    20    1
    35    19    23    1
    36    20    21    2
    37    20    44    1
    38    21    22    1
    39    22    23    1
    40    22    45    1
    41    23    24    2
    42    24    46    1
    43    25    26    1
    44    25    47    1
    45    26    27    2
    46    26    48    1
    47    27    28    1
    48    28    29    1
    49    28    33    1
    50    29    30    1
    51    29    49    1
    52    29    50    1
    53    30    31    1
    54    30    51    1
    55    30    52    1
    56    31    32    1
    57    32    33    1
    58    32    53    1
    59    32    54    1
    60    33    55    1
    61    33    56    1
