@<TRIPOS>MOLECULE
lig
  65   70 0 0 0
SMALL
NO_CHARGES


@<TRIPOS>ATOM
      1 C_00         -4.2555   -3.1029   13.5707 c4      1  lig       0.018420
      2 O_01         -3.8740   -2.3535   14.7166 o0      1  lig      -0.376539
      3 C_02         -2.5261   -2.1057   14.8053 c5      1  lig       0.187393
      4 C_03         -1.7497   -2.8673   15.6804 c6      1  lig      -0.138899
      5 C_04         -0.3863   -2.6106   15.8150 c7      1  lig      -0.314818
      6 C_05          0.2220   -1.5829   15.0890 c8      1  lig       0.013920
      7 N_06          1.5930   -1.3491   15.3060 n0      1  lig      -0.124451
      8 C_07          2.5452   -0.4689   14.7536 c9      1  lig       0.027537
      9 N_08          2.2178    0.3551   13.7190 ng      1  lig      -0.095161
     10 C_09          3.1227    1.2406   13.2181 cb      1  lig      -0.005559
     11 C_0a          4.4207    1.3039   13.7175 ci      1  lig      -0.245333
     12 N_0b          4.7482    0.4921   14.7654 nr      1  lig       0.160952
     13 C_0c          5.8898    0.3836   15.5035 cj      1  lig      -0.372147
     14 C_0d          5.5715   -0.5089   16.5177 ck      1  lig       0.030046
     15 N_0e          4.3818   -1.0543   16.3920 nw      1  lig      -0.525626
     16 C_0f          3.8330   -0.4170   15.3252 cm      1  lig       0.402875
     17 C_0g          2.6564    2.1560   12.1340 cn      1  lig      -0.015359
     18 C_0h          3.5566    2.6280   11.1666 co      1  lig      -0.066261
     19 C_0i          3.1294    3.4499   10.1277 cq      1  lig      -0.215524
     20 C_0j          1.7879    3.8078   10.0318 cr      1  lig      -0.071837
     21 C_0k          0.8660    3.3707   10.9895 cs      1  lig      -0.073159
     22 C_0l          1.3140    2.5576   12.0419 ct      1  lig      -0.092820
     23 C_0m         -0.5783    3.7648   10.8956 cw      1  lig       0.455015
     24 O_0n         -1.3033    3.5740    9.9236 o1      1  lig      -0.520360
     25 N_0o         -1.0030    4.3609   12.0101 nA      1  lig      -0.206140
     26 C_0p         -2.3543    4.8635   12.2406 cA      1  lig       0.018433
     27 C_0q         -2.5836    5.8118   13.2304 cB      1  lig      -0.263823
     28 C_0r         -3.8699    6.2902   13.4498 cC      1  lig      -0.010455
     29 C_0s         -4.9269    5.8204   12.6794 cD      1  lig      -0.007857
     30 C_0t         -4.6976    4.8721   11.6896 cE      1  lig      -0.281842
     31 C_0u         -3.4113    4.3936   11.4701 cF      1  lig      -0.011884
     32 C_0v         -6.3151    6.3368   12.9162 cG      1  lig       0.347163
     33 N_0w         -6.6950    7.2261   13.8051 nB      1  lig      -0.485154
     34 C_0x         -8.0029    7.3574   13.6369 cH      1  lig       0.025720
     35 C_0y         -8.4734    6.5379   12.6216 cI      1  lig      -0.304352
     36 N_0z         -7.3627    5.8801   12.1626 nC      1  lig      -0.233458
     37 C_10         -0.5664   -0.8256   14.2115 cJ      1  lig      -0.035773
     38 C_11         -1.9389   -1.0760   14.0580 cK      1  lig       0.109020
     39 O_12         -2.6991   -0.3052   13.2021 o2      1  lig      -0.232177
     40 C_13         -2.0020    0.6746   12.5251 cL      1  lig      -0.084013
     41 H_14         -3.7528   -4.0708   13.5508 h0      1  lig       0.062075
     42 H_15         -4.0179   -2.5675   12.6505 h6      1  lig       0.062075
     43 H_16         -5.3306   -3.2808   13.5889 h7      1  lig       0.062075
     44 H_17         -2.2100   -3.6528   16.2607 h8      1  lig       0.158823
     45 H_18          0.1911   -3.2101   16.5029 h9      1  lig       0.193230
     46 H_19          2.0246   -1.8858   16.0475 hb      1  lig       0.216301
     47 H_1a          5.1701    2.0030   13.3719 hd      1  lig       0.191274
     48 H_1b          6.7656    0.9739   15.2897 he      1  lig       0.233633
     49 H_1c          6.2089   -0.8330   17.3301 hf      1  lig       0.170160
     50 H_1d          4.5934    2.3309   11.2002 hg      1  lig       0.129388
     51 H_1e          3.8342    3.7939    9.3845 hh      1  lig       0.158664
     52 H_1f          1.4564    4.4350    9.2166 hi      1  lig       0.153857
     53 H_1g          0.6053    2.2130   12.7811 hj      1  lig       0.117320
     54 H_1h         -0.4420    4.5376   12.8311 hk      1  lig       0.220094
     55 H_1i         -1.7606    6.1776   13.8302 hl      1  lig       0.176011
     56 H_1j         -4.0484    7.0285   14.2205 hm      1  lig       0.100151
     57 H_1k         -5.5206    4.5063   11.0897 hq      1  lig       0.144185
     58 H_1l         -3.2328    3.6553   10.6995 hr      1  lig       0.142297
     59 H_1m         -8.6003    8.0331   14.2384 ht      1  lig       0.143635
     60 H_1n         -9.4586    6.3714   12.2026 hu      1  lig       0.208505
     61 H_1o         -7.3154    5.1912   11.4150 hv      1  lig       0.321480
     62 H_1p         -0.1547   -0.0168   13.6337 hy      1  lig      -0.053211
     63 H_1q         -2.6851    1.2257   11.8787 hz      1  lig       0.100755
     64 H_1r         -1.2218    0.2131   11.9198 hA      1  lig       0.100755
     65 H_1s         -1.5485    1.3591   13.2420 hB      1  lig       0.100755
@<TRIPOS>BOND
     1     1     2    1
     2     1    41    1
     3     1    42    1
     4     1    43    1
     5     2     3    1
     6     3     4    2
     7     3    38    1
     8     4     5    1
     9     4    44    1
    10     5     6    2
    11     5    45    1
    12     6     7    1
    13     6    37    1
    14     7     8    1
    15     7    46    1
    16     8     9    2
    17     8    16    1
    18     9    10    1
    19    10    11    2
    20    10    17    1
    21    11    12    1
    22    11    47    1
    23    12    13    1
    24    12    16    1
    25    13    14    2
    26    13    48    1
    27    14    15    1
    28    14    49    1
    29    15    16    2
    30    17    18    2
    31    17    22    1
    32    18    19    1
    33    18    50    1
    34    19    20    2
    35    19    51    1
    36    20    21    1
    37    20    52    1
    38    21    22    2
    39    21    23    1
    40    22    53    1
    41    23    24    2
    42    23    25    1
    43    25    26    1
    44    25    54    1
    45    26    27    2
    46    26    31    1
    47    27    28    1
    48    27    55    1
    49    28    29    2
    50    28    56    1
    51    29    30    1
    52    29    32    1
    53    30    31    2
    54    30    57    1
    55    31    58    1
    56    32    33    2
    57    32    36    1
    58    33    34    1
    59    34    35    2
    60    34    59    1
    61    35    36    1
    62    35    60    1
    63    36    61    1
    64    37    38    2
    65    37    62    1
    66    38    39    1
    67    39    40    1
    68    40    63    1
    69    40    64    1
    70    40    65    1
