@<TRIPOS>MOLECULE
lig
  48   51 0 0 0
SMALL
NO_CHARGES


@<TRIPOS>ATOM
      1 C_00         -4.2555   -3.1029   13.5707 c4      1  lig       0.036989
      2 O_01         -3.8740   -2.3535   14.7166 o0      1  lig      -0.371223
      3 C_02         -2.5261   -2.1057   14.8053 c5      1  lig       0.159088
      4 C_03         -1.7497   -2.8673   15.6804 c6      1  lig      -0.127024
      5 C_04         -0.3863   -2.6106   15.8150 c7      1  lig      -0.321512
      6 C_05          0.2220   -1.5829   15.0890 c8      1  lig      -0.006800
      7 N_06          1.5930   -1.3491   15.3060 n0      1  lig      -0.098877
      8 C_07          2.5452   -0.4689   14.7536 c9      1  lig       0.048824
      9 N_08          2.2178    0.3551   13.7190 ng      1  lig      -0.148556
     10 C_09          3.1227    1.2406   13.2181 cb      1  lig       0.028803
     11 C_0a          4.4207    1.3039   13.7175 ci      1  lig      -0.241313
     12 N_0b          4.7482    0.4921   14.7654 nr      1  lig       0.145852
     13 C_0c          5.8898    0.3836   15.5035 cj      1  lig      -0.370417
     14 C_0d          5.5715   -0.5089   16.5177 ck      1  lig       0.035427
     15 N_0e          4.3818   -1.0543   16.3920 nw      1  lig      -0.528624
     16 C_0f          3.8330   -0.4170   15.3252 cm      1  lig       0.401259
     17 C_0g          2.6564    2.1560   12.1340 cn      1  lig      -0.011813
     18 C_0h          3.5566    2.6280   11.1666 co      1  lig      -0.098822
     19 C_0i          3.1294    3.4499   10.1277 cq      1  lig      -0.228622
     20 C_0j          1.7879    3.8078   10.0318 cr      1  lig       0.203394
     21 F_0k          1.3747    4.5939    9.0109 f0      1  lig      -0.179292
     22 C_0l          0.8660    3.3707   10.9895 cs      1  lig      -0.028475
     23 C_0m          1.3140    2.5576   12.0419 ct      1  lig      -0.144655
     24 C_0n         -0.5765    3.7694   10.8883 cw      1  lig       0.647115
     25 O_0o         -1.4448    3.1424   10.2886 o1      1  lig      -0.581956
     26 N_0p         -0.8228    4.9083   11.5365 nA      1  lig      -0.866643
     27 C_0q         -0.5664   -0.8256   14.2115 cA      1  lig      -0.041823
     28 C_0r         -1.9389   -1.0760   14.0580 cB      1  lig       0.139625
     29 O_0s         -2.6996   -0.3055   13.2024 o2      1  lig      -0.238682
     30 C_0t         -2.0030    0.6746   12.5250 cC      1  lig      -0.102705
     31 H_0u         -5.3279   -3.2950   13.5978 h0      1  lig       0.053607
     32 H_0v         -3.7404   -4.0640   13.5409 h6      1  lig       0.053607
     33 H_0w         -4.0334   -2.5595   12.6514 h7      1  lig       0.053607
     34 H_0x         -2.2101   -3.6528   16.2607 h8      1  lig       0.155943
     35 H_0y          0.1909   -3.2102   16.5030 h9      1  lig       0.193132
     36 H_0z          2.0243   -1.8859   16.0479 hb      1  lig       0.208352
     37 H_10          5.1721    2.0017   13.3734 hd      1  lig       0.192845
     38 H_11          6.7662    0.9734   15.2903 he      1  lig       0.230696
     39 H_12          6.2091   -0.8330   17.3299 hf      1  lig       0.167868
     40 H_13          4.5936    2.3316   11.1997 hg      1  lig       0.142124
     41 H_14          3.8293    3.7971    9.3821 hh      1  lig       0.175743
     42 H_15          0.6045    2.2130   12.7803 hi      1  lig       0.181725
     43 H_16         -1.7221    5.3634   11.6017 hj      1  lig       0.394820
     44 H_17         -0.1401    5.4552   12.0414 hk      1  lig       0.394820
     45 H_18         -0.1548   -0.0169   13.6338 hl      1  lig      -0.029004
     46 H_19         -2.6866    1.2254   11.8789 hm      1  lig       0.107191
     47 H_1a         -1.2230    0.2132   11.9195 hq      1  lig       0.107191
     48 H_1b         -1.5495    1.3592   13.2418 hr      1  lig       0.107191
@<TRIPOS>BOND
     1     1     2    1
     2     1    31    1
     3     1    32    1
     4     1    33    1
     5     2     3    1
     6     3     4    2
     7     3    28    1
     8     4     5    1
     9     4    34    1
    10     5     6    2
    11     5    35    1
    12     6     7    1
    13     6    27    1
    14     7     8    1
    15     7    36    1
    16     8     9    2
    17     8    16    1
    18     9    10    1
    19    10    11    2
    20    10    17    1
    21    11    12    1
    22    11    37    1
    23    12    13    1
    24    12    16    1
    25    13    14    2
    26    13    38    1
    27    14    15    1
    28    14    39    1
    29    15    16    2
    30    17    18    2
    31    17    23    1
    32    18    19    1
    33    18    40    1
    34    19    20    2
    35    19    41    1
    36    20    21    1
    37    20    22    1
    38    22    23    2
    39    22    24    1
    40    23    42    1
    41    24    25    2
    42    24    26    1
    43    26    43    1
    44    26    44    1
    45    27    28    2
    46    27    45    1
    47    28    29    1
    48    29    30    1
    49    30    46    1
    50    30    47    1
    51    30    48    1
