@<TRIPOS>MOLECULE
lig
  51   55 0 0 0
SMALL
NO_CHARGES


@<TRIPOS>ATOM
      1 C_00         -4.5368   -3.3612   15.6406 c4      1  lig      -0.166459
      2 N_01         -3.9561   -2.3810   14.7221 n0      1  lig      -0.268949
      3 C_02         -4.6759   -2.0519   13.4970 c5      1  lig      -0.321287
      4 C_03         -4.8094   -3.1968   12.4731 c6      1  lig       0.320338
      5 O_04         -5.3909   -2.7945   11.2538 o0      1  lig      -0.706898
      6 C_05         -2.5380   -2.1167   14.8106 c7      1  lig       0.097737
      7 C_06         -1.9279   -1.0927   14.0460 c8      1  lig      -0.205164
      8 C_07         -0.5515   -0.8247   14.1929 c9      1  lig      -0.079061
      9 C_08          0.2181   -1.5869   15.0916 cb      1  lig       0.047161
     10 N_09          1.6005   -1.3598   15.3303 ng      1  lig      -0.179432
     11 C_0a          2.5326   -0.4516   14.7667 ci      1  lig       0.028084
     12 N_0b          2.1715    0.3794   13.7341 nr      1  lig      -0.129062
     13 C_0c          3.1060    1.2367   13.2184 cj      1  lig       0.026901
     14 C_0d          4.4145    1.2803   13.6968 ck      1  lig      -0.252732
     15 N_0e          4.7440    0.4821   14.7570 nw      1  lig       0.153153
     16 C_0f          5.8987    0.3805   15.4839 cm      1  lig      -0.366162
     17 C_0g          5.5936   -0.5339   16.5243 cn      1  lig       0.017464
     18 N_0h          4.3807   -1.0510   16.3702 nA      1  lig      -0.538762
     19 C_0i          3.8367   -0.4037   15.3198 co      1  lig       0.425337
     20 C_0j          2.6315    2.1595   12.1222 cq      1  lig      -0.011918
     21 C_0k          3.5425    2.6427   11.1618 cr      1  lig      -0.133995
     22 C_0l          3.1486    3.4642   10.1071 cs      1  lig      -0.240521
     23 C_0m          1.8051    3.8185   10.0149 ct      1  lig       0.036988
     24 C_0n          0.9940    4.5977    9.1169 cw      1  lig       0.088030
     25 N_0o         -0.2465    4.6060    9.5156 nB      1  lig      -0.455099
     26 N_0p         -0.3325    3.8910   10.6299 nC      1  lig      -0.079045
     27 C_0q          0.8808    3.3589   10.9978 cA      1  lig       0.048824
     28 C_0r          1.2718    2.5352   12.0615 cB      1  lig      -0.116206
     29 C_0s         -0.3941   -2.6060   15.8167 cC      1  lig      -0.261016
     30 C_0t         -1.7488   -2.8660   15.6892 cD      1  lig      -0.105900
     31 H_0u         -4.1278   -4.3576   15.4842 h0      1  lig       0.103117
     32 H_0v         -5.6178   -3.4125   15.4956 h6      1  lig       0.103117
     33 H_0w         -4.3606   -3.0644   16.6771 h7      1  lig       0.103117
     34 H_0x         -4.3056   -1.1886   12.9786 h8      1  lig       0.153299
     35 H_0y         -5.6839   -1.7325   13.7631 h9      1  lig       0.153299
     36 H_0z         -5.1990   -4.1205   12.9069 hb      1  lig       0.032992
     37 H_10         -3.8094   -3.5657   12.2747 hd      1  lig       0.032992
     38 H_11         -4.7580   -2.2447   10.7741 he      1  lig       0.425517
     39 H_12         -2.5097   -0.4888   13.3742 hf      1  lig       0.174394
     40 H_13         -0.1087   -0.0249   13.6285 hg      1  lig       0.067444
     41 H_14          1.9936   -1.9427   16.0592 hh      1  lig       0.233470
     42 H_15          5.1750    1.9595   13.3389 hi      1  lig       0.197944
     43 H_16          6.7815    0.9622   15.2772 hj      1  lig       0.230208
     44 H_17          6.2344   -0.8078   17.3485 hk      1  lig       0.172875
     45 H_18          4.5815    2.3487   11.2258 hl      1  lig       0.125644
     46 H_19          3.8643    3.8051    9.3767 hm      1  lig       0.169120
     47 H_1a          1.3025    5.1220    8.2278 hq      1  lig       0.135277
     48 H_1b         -1.2233    3.7862   11.0983 hr      1  lig       0.313636
     49 H_1c          0.5648    2.1990   12.8082 ht      1  lig       0.094533
     50 H_1d          0.1950   -3.1981   16.5054 hu      1  lig       0.175276
     51 H_1e         -2.1858   -3.6564   16.2764 hv      1  lig       0.130380
@<TRIPOS>BOND
     1     1     2    1
     2     1    31    1
     3     1    32    1
     4     1    33    1
     5     2     3    1
     6     2     6    1
     7     3     4    1
     8     3    34    1
     9     3    35    1
    10     4     5    1
    11     4    36    1
    12     4    37    1
    13     5    38    1
    14     6     7    2
    15     6    30    1
    16     7     8    1
    17     7    39    1
    18     8     9    2
    19     8    40    1
    20     9    10    1
    21     9    29    1
    22    10    11    1
    23    10    41    1
    24    11    12    2
    25    11    19    1
    26    12    13    1
    27    13    14    2
    28    13    20    1
    29    14    15    1
    30    14    42    1
    31    15    16    1
    32    15    19    1
    33    16    17    2
    34    16    43    1
    35    17    18    1
    36    17    44    1
    37    18    19    2
    38    20    21    2
    39    20    28    1
    40    21    22    1
    41    21    45    1
    42    22    23    2
    43    22    46    1
    44    23    24    1
    45    23    27    1
    46    24    25    2
    47    24    47    1
    48    25    26    1
    49    26    27    1
    50    26    48    1
    51    27    28    2
    52    28    49    1
    53    29    30    2
    54    29    50    1
    55    30    51    1
