@<TRIPOS>MOLECULE
lig
  43   47 0 0 0
SMALL
NO_CHARGES


@<TRIPOS>ATOM
      1 C_00         -4.2507   -3.1011   13.5632 c4      1  lig      -0.001437
      2 O_01         -3.8673   -2.3305   14.6902 o0      1  lig      -0.348150
      3 C_02         -2.5168   -2.0957   14.8067 c5      1  lig       0.286478
      4 C_03         -1.9172   -1.0702   14.0633 c6      1  lig      -0.204010
      5 C_04         -0.5491   -0.8101   14.2065 c7      1  lig      -0.118454
      6 C_05          0.2199   -1.5870   15.0928 c8      1  lig       0.021960
      7 N_06          1.6080   -1.3729   15.3230 n0      1  lig      -0.162187
      8 C_07          2.5324   -0.4358   14.7759 c9      1  lig       0.070643
      9 N_08          2.1663    0.3860   13.7470 ng      1  lig      -0.192855
     10 C_09          3.0989    1.2355   13.2241 cb      1  lig       0.043772
     11 C_0a          4.4088    1.2797   13.7018 ci      1  lig      -0.236171
     12 N_0b          4.7449    0.4891   14.7567 nr      1  lig       0.140649
     13 C_0c          5.8960    0.3776   15.4790 cj      1  lig      -0.372298
     14 C_0d          5.5960   -0.5292   16.5069 ck      1  lig       0.037241
     15 N_0e          4.3874   -1.0583   16.3532 nw      1  lig      -0.534935
     16 C_0f          3.8346   -0.3857   15.3305 cm      1  lig       0.414874
     17 C_0g          2.6263    2.1555   12.1187 cn      1  lig       0.008751
     18 C_0h          3.5439    2.6382   11.1639 co      1  lig      -0.120616
     19 C_0i          3.1468    3.4593   10.1107 cq      1  lig      -0.263593
     20 C_0j          1.8029    3.8136   10.0160 cr      1  lig       0.052435
     21 C_0k          0.9932    4.6001    9.1195 cs      1  lig       0.064448
     22 N_0l         -0.2428    4.6141    9.5158 nA      1  lig      -0.438229
     23 N_0m         -0.3351    3.8865   10.6250 nB      1  lig      -0.119813
     24 C_0n          0.8815    3.3478   10.9920 ct      1  lig       0.094361
     25 C_0o          1.2640    2.5243   12.0473 cw      1  lig      -0.166292
     26 C_0p         -0.3962   -2.6164   15.8132 cA      1  lig      -0.191171
     27 C_0q         -1.7505   -2.8679   15.6748 cB      1  lig      -0.218910
     28 H_0r         -5.3298   -3.2473   13.5826 h0      1  lig       0.068198
     29 H_0s         -3.7850   -4.0873   13.5638 h6      1  lig       0.068198
     30 H_0t         -4.0025   -2.5878   12.6346 h7      1  lig       0.068198
     31 H_0u         -2.5171   -0.4778   13.3832 h8      1  lig       0.142134
     32 H_0v         -0.1065   -0.0198   13.6433 h9      1  lig       0.101461
     33 H_0w          2.0019   -1.9714   16.0327 hb      1  lig       0.213858
     34 H_0x          5.1639    1.9590   13.3284 hd      1  lig       0.189637
     35 H_0y          6.7685    0.9695   15.2724 he      1  lig       0.233208
     36 H_0z          6.2504   -0.7908   17.3182 hf      1  lig       0.165044
     37 H_10          4.5902    2.3441   11.2391 hg      1  lig       0.121164
     38 H_11          3.8565    3.8021    9.3952 hh      1  lig       0.173494
     39 H_12          1.2988    5.1235    8.2486 hi      1  lig       0.141589
     40 H_13         -1.2242    3.7838   11.0912 hj      1  lig       0.324361
     41 H_14          0.5635    2.1916   12.7791 hk      1  lig       0.116033
     42 H_15          0.1890   -3.2156   16.4997 hl      1  lig       0.176434
     43 H_16         -2.2053   -3.6566   16.2497 hm      1  lig       0.150498
@<TRIPOS>BOND
     1     1     2    1
     2     1    28    1
     3     1    29    1
     4     1    30    1
     5     2     3    1
     6     3     4    2
     7     3    27    1
     8     4     5    1
     9     4    31    1
    10     5     6    2
    11     5    32    1
    12     6     7    1
    13     6    26    1
    14     7     8    1
    15     7    33    1
    16     8     9    2
    17     8    16    1
    18     9    10    1
    19    10    11    2
    20    10    17    1
    21    11    12    1
    22    11    34    1
    23    12    13    1
    24    12    16    1
    25    13    14    2
    26    13    35    1
    27    14    15    1
    28    14    36    1
    29    15    16    2
    30    17    18    2
    31    17    25    1
    32    18    19    1
    33    18    37    1
    34    19    20    2
    35    19    38    1
    36    20    21    1
    37    20    24    1
    38    21    22    2
    39    21    39    1
    40    22    23    1
    41    23    24    1
    42    23    40    1
    43    24    25    2
    44    25    41    1
    45    26    27    2
    46    26    42    1
    47    27    43    1
