@<TRIPOS>MOLECULE
lig
  39   43 0 0 0
SMALL
NO_CHARGES


@<TRIPOS>ATOM
      1 N_00          1.6124   -1.3917   15.3063 n0      1  lig      -0.149375
      2 C_01          0.2249   -1.5978   15.0814 c4      1  lig       0.025999
      3 C_02         -0.5442   -0.8150   14.1982 c5      1  lig      -0.050199
      4 C_03         -1.9142   -1.0738   14.0573 c6      1  lig      -0.165472
      5 C_04         -2.5121   -2.0998   14.7912 c7      1  lig      -0.166230
      6 C_05         -1.7536   -2.8696   15.6610 c8      1  lig      -0.138123
      7 C_06         -0.3955   -2.6216   15.8033 c9      1  lig      -0.186163
      8 C_07          2.5315   -0.4491   14.7651 cb      1  lig       0.053764
      9 N_08          2.1583    0.3961   13.7551 ng      1  lig      -0.186192
     10 C_09          3.0948    1.2419   13.2245 ci      1  lig       0.038625
     11 C_0a          4.4047    1.2813   13.6954 cj      1  lig      -0.252364
     12 N_0b          4.7386    0.4915   14.7531 nr      1  lig       0.159778
     13 C_0c          5.8960    0.3859   15.4809 ck      1  lig      -0.369056
     14 C_0d          5.5970   -0.5411   16.5116 cm      1  lig       0.023196
     15 N_0e          4.3870   -1.0586   16.3541 nw      1  lig      -0.533596
     16 C_0f          3.8354   -0.3959   15.3220 cn      1  lig       0.417846
     17 C_0g          2.6241    2.1558   12.1223 co      1  lig       0.022841
     18 C_0h          3.5409    2.6448   11.1668 cq      1  lig      -0.124571
     19 C_0i          3.1526    3.4655   10.1090 cr      1  lig      -0.282300
     20 C_0j          1.8070    3.8204   10.0137 cs      1  lig       0.078900
     21 C_0k          0.9973    4.6040    9.1190 ct      1  lig       0.052922
     22 N_0l         -0.2435    4.6079    9.5202 nA      1  lig      -0.438590
     23 N_0m         -0.3316    3.8816   10.6309 nB      1  lig      -0.101298
     24 C_0n          0.8832    3.3484   10.9943 cw      1  lig       0.071085
     25 C_0o          1.2619    2.5173   12.0545 cA      1  lig      -0.157109
     26 H_0p          2.0176   -2.0162   15.9915 h0      1  lig       0.216342
     27 H_0q         -0.1036   -0.0170   13.6342 h6      1  lig       0.069831
     28 H_0r         -2.5121   -0.4793   13.3847 h7      1  lig       0.149202
     29 H_0s         -3.5698   -2.2967   14.6864 h8      1  lig       0.141432
     30 H_0t         -2.2195   -3.6606   16.2340 h9      1  lig       0.145839
     31 H_0u          0.1884   -3.2203   16.4893 hb      1  lig       0.155844
     32 H_0v          5.1658    1.9496   13.3207 hd      1  lig       0.194374
     33 H_0w          6.7756    0.9786   15.2759 he      1  lig       0.231579
     34 H_0x          6.2399   -0.8270   17.3309 hf      1  lig       0.171105
     35 H_0y          4.5780    2.3565   11.2387 hg      1  lig       0.123686
     36 H_0z          3.8751    3.8096    9.3796 hh      1  lig       0.178627
     37 H_10          1.3042    5.1362    8.2332 hi      1  lig       0.142839
     38 H_11         -1.2186    3.7731   11.1004 hj      1  lig       0.318853
     39 H_12          0.5529    2.1690   12.7938 hk      1  lig       0.116129
@<TRIPOS>BOND
     1     1     2    1
     2     1     8    1
     3     1    26    1
     4     2     3    2
     5     2     7    1
     6     3     4    1
     7     3    27    1
     8     4     5    2
     9     4    28    1
    10     5     6    1
    11     5    29    1
    12     6     7    2
    13     6    30    1
    14     7    31    1
    15     8     9    2
    16     8    16    1
    17     9    10    1
    18    10    11    2
    19    10    17    1
    20    11    12    1
    21    11    32    1
    22    12    13    1
    23    12    16    1
    24    13    14    2
    25    13    33    1
    26    14    15    1
    27    14    34    1
    28    15    16    2
    29    17    18    2
    30    17    25    1
    31    18    19    1
    32    18    35    1
    33    19    20    2
    34    19    36    1
    35    20    21    1
    36    20    24    1
    37    21    22    2
    38    21    37    1
    39    22    23    1
    40    23    24    1
    41    23    38    1
    42    24    25    2
    43    25    39    1
