@<TRIPOS>MOLECULE
lig
  65   70 0 0 0
SMALL
NO_CHARGES


@<TRIPOS>ATOM
      1 C_00         -4.2555   -3.1029   13.5707 c4      1  lig       0.031983
      2 O_01         -3.8740   -2.3535   14.7166 o0      1  lig      -0.263827
      3 C_02         -2.5261   -2.1057   14.8053 c5      1  lig       0.114155
      4 C_03         -1.7497   -2.8673   15.6804 c6      1  lig      -0.126077
      5 C_04         -0.3863   -2.6106   15.8150 c7      1  lig      -0.266316
      6 C_05          0.2220   -1.5829   15.0890 c8      1  lig      -0.015672
      7 N_06          1.5930   -1.3491   15.3060 n0      1  lig      -0.130204
      8 C_07          2.5452   -0.4689   14.7536 c9      1  lig       0.019653
      9 N_08          2.2178    0.3551   13.7190 ng      1  lig      -0.100881
     10 C_09          3.1227    1.2406   13.2181 cb      1  lig      -0.005487
     11 C_0a          4.4207    1.3039   13.7175 ci      1  lig      -0.253176
     12 N_0b          4.7482    0.4921   14.7654 nr      1  lig       0.158414
     13 C_0c          5.8898    0.3836   15.5035 cj      1  lig      -0.350370
     14 C_0d          5.5715   -0.5089   16.5177 ck      1  lig       0.025557
     15 N_0e          4.3818   -1.0543   16.3920 nw      1  lig      -0.526213
     16 C_0f          3.8330   -0.4170   15.3252 cm      1  lig       0.399108
     17 C_0g          2.6564    2.1560   12.1340 cn      1  lig       0.012845
     18 C_0h          3.5566    2.6280   11.1666 co      1  lig      -0.109438
     19 C_0i          3.1294    3.4499   10.1277 cq      1  lig      -0.183998
     20 C_0j          1.7879    3.8078   10.0318 cr      1  lig      -0.100448
     21 C_0k          0.8660    3.3707   10.9895 cs      1  lig      -0.115622
     22 C_0l          1.3140    2.5576   12.0419 ct      1  lig      -0.028070
     23 C_0m         -0.5881    3.7303   10.8428 cw      1  lig       0.604197
     24 O_0n         -1.1092    3.7021    9.7263 o1      1  lig      -0.532042
     25 N_0o         -1.2179    4.0963   11.9826 nA      1  lig      -0.461443
     26 C_0p         -2.5548    4.5074   12.1308 cA      1  lig       0.110444
     27 C_0q         -3.5938    4.0626   11.3021 cB      1  lig      -0.125605
     28 C_0r         -4.8906    4.5243   11.5030 cC      1  lig      -0.141153
     29 C_0s         -5.1795    5.4211   12.5413 cD      1  lig       0.033031
     30 C_0t         -4.1385    5.8321   13.3869 cE      1  lig      -0.162387
     31 C_0u         -2.8376    5.3818   13.1807 cF      1  lig      -0.173505
     32 C_0v         -6.5795    5.9152   12.7554 cG      1  lig       0.067282
     33 C_0w         -7.8001    5.5757   12.2009 cH      1  lig      -0.357689
     34 C_0x         -8.7342    6.4074   12.8268 cI      1  lig       0.081590
     35 N_0y         -8.1709    7.2095   13.7036 nB      1  lig      -0.472677
     36 N_0z         -6.8624    6.9071   13.6570 nC      1  lig       0.118723
     37 C_10         -0.5664   -0.8256   14.2115 cJ      1  lig      -0.068739
     38 C_11         -1.9389   -1.0760   14.0580 cK      1  lig       0.095178
     39 O_12         -2.7621   -0.3534   13.2116 o2      1  lig      -0.190853
     40 C_13         -2.2029    0.6764   12.4028 cL      1  lig      -0.071584
     41 H_14         -3.7319   -4.0591   13.5349 h0      1  lig       0.056993
     42 H_15         -4.0488   -2.5587   12.6486 h6      1  lig       0.056993
     43 H_16         -5.3256   -3.3057   13.6062 h7      1  lig       0.056993
     44 H_17         -2.2115   -3.6525   16.2595 h8      1  lig       0.150167
     45 H_18          0.1907   -3.2107   16.5029 h9      1  lig       0.178443
     46 H_19          2.0263   -1.8894   16.0446 hb      1  lig       0.229012
     47 H_1a          5.1725    2.0000   13.3704 hd      1  lig       0.200411
     48 H_1b          6.7667    0.9724   15.2895 he      1  lig       0.225757
     49 H_1c          6.2096   -0.8335   17.3296 hf      1  lig       0.170862
     50 H_1d          4.5932    2.3291   11.1982 hg      1  lig       0.135749
     51 H_1e          3.8321    3.7889    9.3800 hh      1  lig       0.155625
     52 H_1f          1.4532    4.4207    9.2055 hi      1  lig       0.156787
     53 H_1g          0.6102    2.1883   12.7736 hj      1  lig       0.027054
     54 H_1h         -0.6256    4.1766   12.7928 hk      1  lig       0.301252
     55 H_1i         -3.4137    3.3677   10.4946 hl      1  lig       0.158132
     56 H_1j         -5.6833    4.1870   10.8507 hm      1  lig       0.142085
     57 H_1k         -4.3476    6.5138   14.1986 hq      1  lig       0.153650
     58 H_1l         -2.0539    5.7265   13.8396 hr      1  lig       0.144419
     59 H_1m         -7.9941    4.8267   11.4440 ht      1  lig       0.173259
     60 H_1n         -9.8018    6.4182   12.6378 hu      1  lig       0.137949
     61 H_1o         -6.1655    7.3743   14.2366 hv      1  lig       0.122507
     62 H_1p         -0.1266   -0.0266   13.6477 hy      1  lig       0.044740
     63 H_1q         -1.4235    0.2925   11.7430 hz      1  lig       0.094159
     64 H_1r         -1.7941    1.4768   13.0196 hA      1  lig       0.094159
     65 H_1s         -2.9831    1.1078   11.7761 hB      1  lig       0.094159
@<TRIPOS>BOND
     1     1     2    1
     2     1    41    1
     3     1    42    1
     4     1    43    1
     5     2     3    1
     6     3     4    2
     7     3    38    1
     8     4     5    1
     9     4    44    1
    10     5     6    2
    11     5    45    1
    12     6     7    1
    13     6    37    1
    14     7     8    1
    15     7    46    1
    16     8     9    2
    17     8    16    1
    18     9    10    1
    19    10    11    2
    20    10    17    1
    21    11    12    1
    22    11    47    1
    23    12    13    1
    24    12    16    1
    25    13    14    2
    26    13    48    1
    27    14    15    1
    28    14    49    1
    29    15    16    2
    30    17    18    2
    31    17    22    1
    32    18    19    1
    33    18    50    1
    34    19    20    2
    35    19    51    1
    36    20    21    1
    37    20    52    1
    38    21    22    2
    39    21    23    1
    40    22    53    1
    41    23    24    2
    42    23    25    1
    43    25    26    1
    44    25    54    1
    45    26    27    2
    46    26    31    1
    47    27    28    1
    48    27    55    1
    49    28    29    2
    50    28    56    1
    51    29    30    1
    52    29    32    1
    53    30    31    2
    54    30    57    1
    55    31    58    1
    56    32    36    1
    57    32    33    2
    58    33    34    1
    59    33    59    1
    60    34    60    1
    61    34    35    2
    62    35    36    1
    63    36    61    1
    64    37    38    2
    65    37    62    1
    66    38    39    1
    67    39    40    1
    68    40    63    1
    69    40    64    1
    70    40    65    1
