@<TRIPOS>MOLECULE
lig
  51   54 0 0 0
SMALL
NO_CHARGES


@<TRIPOS>ATOM
      1 C_00         -4.2555   -3.1029   13.5707 c4      1  lig      -0.007346
      2 O_01         -3.8740   -2.3535   14.7166 o0      1  lig      -0.374069
      3 C_02         -2.5261   -2.1057   14.8053 c5      1  lig       0.166724
      4 C_03         -1.7497   -2.8673   15.6804 c6      1  lig      -0.135319
      5 C_04         -0.3863   -2.6106   15.8150 c7      1  lig      -0.315179
      6 C_05          0.2220   -1.5829   15.0890 c8      1  lig      -0.001130
      7 N_06          1.5930   -1.3491   15.3060 n0      1  lig      -0.120373
      8 C_07          2.5452   -0.4689   14.7536 c9      1  lig       0.006201
      9 N_08          2.2178    0.3551   13.7190 ng      1  lig      -0.078836
     10 C_09          3.1227    1.2406   13.2181 cb      1  lig       0.013198
     11 C_0a          4.4207    1.3039   13.7175 ci      1  lig      -0.239075
     12 N_0b          4.7482    0.4921   14.7654 nr      1  lig       0.138964
     13 C_0c          5.8898    0.3836   15.5035 cj      1  lig      -0.371745
     14 C_0d          5.5715   -0.5089   16.5177 ck      1  lig       0.041122
     15 N_0e          4.3818   -1.0543   16.3920 nw      1  lig      -0.534218
     16 C_0f          3.8330   -0.4170   15.3252 cm      1  lig       0.411167
     17 C_0g          2.6564    2.1560   12.1340 cn      1  lig      -0.049950
     18 C_0h          1.3140    2.5576   12.0419 co      1  lig      -0.139032
     19 C_0i          0.8660    3.3707   10.9895 cq      1  lig      -0.047242
     20 C_0j          1.7879    3.8078   10.0318 cr      1  lig      -0.142633
     21 C_0k          3.1294    3.4499   10.1277 cs      1  lig      -0.227927
     22 C_0l          3.5566    2.6280   11.1666 ct      1  lig       0.130348
     23 C_0m          4.9972    2.2126   11.2105 cw      1  lig      -0.174871
     24 C_0n         -0.5881    3.7303   10.8428 cA      1  lig       0.667952
     25 O_0o         -1.1092    3.7021    9.7263 o1      1  lig      -0.573728
     26 N_0p         -1.2179    4.0963   11.9826 nA      1  lig      -0.816746
     27 C_0q         -0.5664   -0.8256   14.2115 cB      1  lig      -0.047847
     28 C_0r         -1.9389   -1.0760   14.0580 cC      1  lig       0.146814
     29 O_0s         -2.6987   -0.3081   13.1992 o2      1  lig      -0.259563
     30 C_0t         -2.0021    0.6722   12.5223 cD      1  lig      -0.079346
     31 H_0u         -5.3290   -3.2895   13.5939 h0      1  lig       0.070283
     32 H_0v         -3.7452   -4.0667   13.5449 h6      1  lig       0.070283
     33 H_0w         -4.0270   -2.5627   12.6510 h7      1  lig       0.070283
     34 H_0x         -2.2099   -3.6533   16.2602 h8      1  lig       0.159506
     35 H_0y          0.1911   -3.2106   16.5025 h9      1  lig       0.190732
     36 H_0z          2.0257   -1.8895   16.0445 hb      1  lig       0.222562
     37 H_10          5.1717    2.0006   13.3700 hd      1  lig       0.203441
     38 H_11          6.7663    0.9729   15.2892 he      1  lig       0.229837
     39 H_12          6.2094   -0.8335   17.3296 hf      1  lig       0.166764
     40 H_13          0.6068    2.1879   12.7700 hg      1  lig       0.119913
     41 H_14          1.4521    4.4207    9.2063 hh      1  lig       0.164855
     42 H_15          3.8319    3.7891    9.3801 hi      1  lig       0.159384
     43 H_16          5.5347    2.6775   10.3840 hj      1  lig       0.062462
     44 H_17          5.0655    1.1282   11.1241 hk      1  lig       0.062462
     45 H_18          5.4384    2.5303   12.1552 hl      1  lig       0.062462
     46 H_19         -2.1896    4.3530   11.9274 hm      1  lig       0.364104
     47 H_1a         -0.7063    4.1173   12.8487 hq      1  lig       0.364104
     48 H_1b         -0.1540   -0.0199   13.6303 hr      1  lig      -0.025900
     49 H_1c         -2.6849    1.2208   11.8735 ht      1  lig       0.098716
     50 H_1d         -1.2195    0.2114   11.9195 hu      1  lig       0.098716
     51 H_1e         -1.5517    1.3587   13.2392 hv      1  lig       0.098716
@<TRIPOS>BOND
     1     1     2    1
     2     1    31    1
     3     1    32    1
     4     1    33    1
     5     2     3    1
     6     3     4    2
     7     3    28    1
     8     4     5    1
     9     4    34    1
    10     5     6    2
    11     5    35    1
    12     6     7    1
    13     6    27    1
    14     7     8    1
    15     7    36    1
    16     8     9    2
    17     8    16    1
    18     9    10    1
    19    10    11    2
    20    10    17    1
    21    11    12    1
    22    11    37    1
    23    12    13    1
    24    12    16    1
    25    13    14    2
    26    13    38    1
    27    14    15    1
    28    14    39    1
    29    15    16    2
    30    17    18    2
    31    17    22    1
    32    18    19    1
    33    18    40    1
    34    19    20    2
    35    19    24    1
    36    20    21    1
    37    20    41    1
    38    21    22    2
    39    21    42    1
    40    22    23    1
    41    23    43    1
    42    23    44    1
    43    23    45    1
    44    24    25    2
    45    24    26    1
    46    26    46    1
    47    26    47    1
    48    27    28    2
    49    27    48    1
    50    28    29    1
    51    29    30    1
    52    30    49    1
    53    30    50    1
    54    30    51    1
