@<TRIPOS>MOLECULE
lig
  62   66 0 0 0
SMALL
NO_CHARGES


@<TRIPOS>ATOM
      1 C_00         -4.2555   -3.1029   13.5707 c4      1  lig      -0.135010
      2 O_01         -3.8740   -2.3535   14.7166 o0      1  lig      -0.280948
      3 C_02         -2.5261   -2.1057   14.8053 c5      1  lig       0.105637
      4 C_03         -1.7497   -2.8673   15.6804 c6      1  lig      -0.135105
      5 C_04         -0.3863   -2.6106   15.8150 c7      1  lig      -0.252063
      6 C_05          0.2220   -1.5829   15.0890 c8      1  lig      -0.015183
      7 N_06          1.5930   -1.3491   15.3060 n0      1  lig      -0.150270
      8 C_07          2.5452   -0.4689   14.7536 c9      1  lig       0.006286
      9 N_08          2.2178    0.3551   13.7190 ng      1  lig      -0.070901
     10 C_09          3.1227    1.2406   13.2181 cb      1  lig      -0.010851
     11 C_0a          4.4207    1.3039   13.7175 ci      1  lig      -0.262901
     12 N_0b          4.7482    0.4921   14.7654 nr      1  lig       0.160637
     13 C_0c          5.8898    0.3836   15.5035 cj      1  lig      -0.356716
     14 C_0d          5.5715   -0.5089   16.5177 ck      1  lig       0.034529
     15 N_0e          4.3818   -1.0543   16.3920 nw      1  lig      -0.534003
     16 C_0f          3.8330   -0.4170   15.3252 cm      1  lig       0.405924
     17 C_0g          2.6564    2.1560   12.1340 cn      1  lig       0.007812
     18 C_0h          3.5566    2.6280   11.1666 co      1  lig      -0.110050
     19 C_0i          3.1294    3.4499   10.1277 cq      1  lig      -0.183062
     20 C_0j          1.7879    3.8078   10.0318 cr      1  lig      -0.102218
     21 C_0k          0.8660    3.3707   10.9895 cs      1  lig      -0.113919
     22 C_0l          1.3140    2.5576   12.0419 ct      1  lig      -0.027667
     23 C_0m         -0.5783    3.7648   10.8956 cw      1  lig       0.581220
     24 O_0n         -1.2921    3.6116    9.9088 o1      1  lig      -0.530165
     25 N_0o         -1.0169    4.3144   12.0284 nA      1  lig      -0.407394
     26 C_0p         -2.3720    4.8041   12.2640 cA      1  lig       0.069589
     27 C_0q         -3.4192    4.3632   11.4637 cB      1  lig      -0.039748
     28 C_0r         -4.7092    4.8293   11.6879 cC      1  lig      -0.223975
     29 C_0s         -4.9520    5.7363   12.7126 cD      1  lig      -0.048785
     30 C_0t         -3.9048    6.1772   13.5130 cE      1  lig      -0.113208
     31 C_0u         -2.6148    5.7111   13.2887 cF      1  lig      -0.178722
     32 C_0v         -6.3442    6.2394   12.9547 cG      1  lig       0.743848
     33 O_0w         -7.2606    6.2094   12.1385 o2      1  lig      -0.610354
     34 N_0x         -6.4851    6.7362   14.1839 nB      1  lig      -0.924845
     35 C_0y         -0.5664   -0.8256   14.2115 cH      1  lig      -0.091648
     36 C_0z         -1.9389   -1.0760   14.0580 cI      1  lig       0.124372
     37 O_10         -2.6991   -0.3052   13.2021 o3      1  lig      -0.190840
     38 C_11         -2.0020    0.6746   12.5251 cJ      1  lig      -0.080300
     39 H_12         -3.7528   -4.0708   13.5508 h0      1  lig       0.100246
     40 H_13         -4.0179   -2.5675   12.6505 h6      1  lig       0.100246
     41 H_14         -5.3306   -3.2808   13.5889 h7      1  lig       0.100246
     42 H_15         -2.2100   -3.6528   16.2607 h8      1  lig       0.148150
     43 H_16          0.1911   -3.2101   16.5029 h9      1  lig       0.175321
     44 H_17          2.0246   -1.8858   16.0475 hb      1  lig       0.241475
     45 H_18          5.1701    2.0030   13.3719 hd      1  lig       0.206987
     46 H_19          6.7656    0.9739   15.2897 he      1  lig       0.226909
     47 H_1a          6.2089   -0.8330   17.3301 hf      1  lig       0.169242
     48 H_1b          4.5934    2.3309   11.2002 hg      1  lig       0.136394
     49 H_1c          3.8342    3.7939    9.3845 hh      1  lig       0.155683
     50 H_1d          1.4564    4.4350    9.2166 hi      1  lig       0.160125
     51 H_1e          0.6053    2.2130   12.7811 hj      1  lig       0.026874
     52 H_1f         -0.4654    4.4592   12.8620 hk      1  lig       0.287585
     53 H_1g         -3.2302    3.6570   10.6659 hl      1  lig       0.141782
     54 H_1h         -5.5245    4.4860   11.0648 hm      1  lig       0.170800
     55 H_1i         -4.0938    6.8834   14.3107 hq      1  lig       0.140805
     56 H_1j         -1.7995    6.0544   13.9118 hr      1  lig       0.142195
     57 H_1k         -7.3345    7.1291   14.5640 ht      1  lig       0.386080
     58 H_1l         -5.7598    6.7805   14.8854 hu      1  lig       0.386080
     59 H_1m         -0.1547   -0.0168   13.6337 hv      1  lig       0.059033
     60 H_1n         -2.6851    1.2257   11.8787 hy      1  lig       0.092913
     61 H_1o         -1.2218    0.2131   11.9198 hz      1  lig       0.092913
     62 H_1p         -1.5485    1.3591   13.2420 hA      1  lig       0.092913
@<TRIPOS>BOND
     1     1     2    1
     2     1    39    1
     3     1    40    1
     4     1    41    1
     5     2     3    1
     6     3     4    2
     7     3    36    1
     8     4     5    1
     9     4    42    1
    10     5     6    2
    11     5    43    1
    12     6     7    1
    13     6    35    1
    14     7     8    1
    15     7    44    1
    16     8     9    2
    17     8    16    1
    18     9    10    1
    19    10    11    2
    20    10    17    1
    21    11    12    1
    22    11    45    1
    23    12    13    1
    24    12    16    1
    25    13    14    2
    26    13    46    1
    27    14    15    1
    28    14    47    1
    29    15    16    2
    30    17    18    2
    31    17    22    1
    32    18    19    1
    33    18    48    1
    34    19    20    2
    35    19    49    1
    36    20    21    1
    37    20    50    1
    38    21    22    2
    39    21    23    1
    40    22    51    1
    41    23    24    2
    42    23    25    1
    43    25    26    1
    44    25    52    1
    45    26    27    2
    46    26    31    1
    47    27    28    1
    48    27    53    1
    49    28    29    2
    50    28    54    1
    51    29    30    1
    52    29    32    1
    53    30    31    2
    54    30    55    1
    55    31    56    1
    56    32    33    2
    57    32    34    1
    58    34    57    1
    59    34    58    1
    60    35    36    2
    61    35    59    1
    62    36    37    1
    63    37    38    1
    64    38    60    1
    65    38    61    1
    66    38    62    1
