@<TRIPOS>MOLECULE
lig
  60   64 0 0 0
SMALL
NO_CHARGES


@<TRIPOS>ATOM
      1 C_00         -4.2563   -3.1062   13.5664 c4      1  lig       0.019413
      2 O_01         -3.8728   -2.3593   14.7106 o0      1  lig      -0.367990
      3 C_02         -2.5249   -2.1101   14.8131 c5      1  lig       0.176033
      4 C_03         -1.7501   -2.8737   15.6749 c6      1  lig      -0.137924
      5 C_04         -0.3910   -2.6176   15.8092 c7      1  lig      -0.313998
      6 C_05          0.2227   -1.5905   15.0869 c8      1  lig      -0.002700
      7 N_06          1.6077   -1.3711   15.3228 n0      1  lig      -0.111510
      8 C_07          2.5318   -0.4406   14.7752 c9      1  lig       0.072808
      9 N_08          2.1656    0.3957   13.7562 ng      1  lig      -0.166029
     10 C_09          3.1117    1.2369   13.2296 cb      1  lig       0.018376
     11 C_0a          4.4129    1.2745   13.7026 ci      1  lig      -0.244981
     12 N_0b          4.7445    0.4891   14.7604 nr      1  lig       0.157060
     13 C_0c          5.8979    0.3839   15.4837 cj      1  lig      -0.380584
     14 C_0d          5.5998   -0.5411   16.5157 ck      1  lig       0.034905
     15 N_0e          4.3864   -1.0537   16.3628 nw      1  lig      -0.536757
     16 C_0f          3.8368   -0.3920   15.3291 cm      1  lig       0.393521
     17 C_0g          2.6550    2.1423   12.1326 cn      1  lig      -0.011167
     18 C_0h          3.5650    2.6308   11.1723 co      1  lig      -0.075053
     19 C_0i          3.1221    3.4386   10.1249 cq      1  lig      -0.220360
     20 C_0j          1.7757    3.7777   10.0261 cr      1  lig      -0.082403
     21 C_0k          0.8680    3.3392   10.9975 cs      1  lig      -0.045532
     22 C_0l          1.3092    2.5240   12.0437 ct      1  lig      -0.148248
     23 C_0m         -0.5769    3.7618   10.9126 cw      1  lig       0.472236
     24 O_0n         -1.1111    3.9318    9.8164 o1      1  lig      -0.537842
     25 N_0o         -1.1792    4.0031   12.1232 nA      1  lig      -0.212411
     26 C_0p         -2.4941    4.5708   12.2428 cA      1  lig       0.019661
     27 C_0q         -3.4732    4.3742   11.2553 cB      1  lig      -0.110726
     28 C_0r         -4.7281    4.9504   11.3975 cC      1  lig      -0.174263
     29 C_0s         -5.0306    5.7263   12.5247 cD      1  lig       0.031251
     30 C_0t         -4.0556    5.9172   13.5169 cE      1  lig      -0.130206
     31 C_0u         -2.7906    5.3372   13.3771 cF      1  lig      -0.273650
     32 C_0v         -6.3945    6.3441   12.6680 cG      1  lig       0.735402
     33 O_0w         -7.2177    6.1258   11.7478 o2      1  lig      -0.763113
     34 O_0x         -6.6066    7.0283   13.6967 o3      1  lig      -0.768314
     35 C_0y         -0.5540   -0.8141   14.1957 cH      1  lig      -0.036512
     36 C_0z         -1.9401   -1.0806   14.0641 cI      1  lig       0.108998
     37 O_10         -2.7443   -0.3364   13.2160 o4      1  lig      -0.202162
     38 C_11         -2.2132    0.6462   12.3458 cJ      1  lig      -0.075610
     39 H_12         -5.3361   -3.2549   13.5857 h0      1  lig       0.058529
     40 H_13         -3.7839   -4.0892   13.5560 h6      1  lig       0.058529
     41 H_14         -4.0102   -2.5844   12.6405 h7      1  lig       0.058529
     42 H_15         -2.2076   -3.6642   16.2534 h8      1  lig       0.149716
     43 H_16          0.1980   -3.2129   16.4943 h9      1  lig       0.185631
     44 H_17          2.0049   -1.9718   16.0350 hb      1  lig       0.205782
     45 H_18          5.1749    1.9434   13.3291 hd      1  lig       0.186183
     46 H_19          6.7778    0.9747   15.2766 he      1  lig       0.229366
     47 H_1a          6.2427   -0.8274   17.3331 hf      1  lig       0.161419
     48 H_1b          4.6093    2.3606   11.2287 hg      1  lig       0.116995
     49 H_1c          3.8254    3.8001    9.3864 hh      1  lig       0.152395
     50 H_1d          1.4370    4.4087    9.2133 hi      1  lig       0.148516
     51 H_1e          0.6084    2.1782   12.7883 hj      1  lig       0.188406
     52 H_1f         -0.6284    3.9274   12.9685 hk      1  lig       0.199436
     53 H_1g         -3.2732    3.7726   10.3909 hl      1  lig       0.127613
     54 H_1h         -5.4737    4.7957   10.6329 hm      1  lig       0.137334
     55 H_1i         -4.2825    6.5166   14.3929 hq      1  lig       0.140549
     56 H_1j         -2.0386    5.4914   14.1417 hr      1  lig       0.140827
     57 H_1k         -0.1130   -0.0178   13.6310 ht      1  lig      -0.046374
     58 H_1l         -3.0333    1.0720   11.7646 hu      1  lig       0.097000
     59 H_1m         -1.4951    0.2209   11.6444 hv      1  lig       0.097000
     60 H_1n         -1.7591    1.4508   12.9195 hy      1  lig       0.097000
@<TRIPOS>BOND
     1     1     2    1
     2     1    39    1
     3     1    40    1
     4     1    41    1
     5     2     3    1
     6     3     4    2
     7     3    36    1
     8     4     5    1
     9     4    42    1
    10     5     6    2
    11     5    43    1
    12     6     7    1
    13     6    35    1
    14     7     8    1
    15     7    44    1
    16     8     9    2
    17     8    16    1
    18     9    10    1
    19    10    11    2
    20    10    17    1
    21    11    12    1
    22    11    45    1
    23    12    13    1
    24    12    16    1
    25    13    14    2
    26    13    46    1
    27    14    15    1
    28    14    47    1
    29    15    16    2
    30    17    18    2
    31    17    22    1
    32    18    19    1
    33    18    48    1
    34    19    20    2
    35    19    49    1
    36    20    21    1
    37    20    50    1
    38    21    22    2
    39    21    23    1
    40    22    51    1
    41    23    24    2
    42    23    25    1
    43    25    26    1
    44    25    52    1
    45    26    27    2
    46    26    31    1
    47    27    28    1
    48    27    53    1
    49    28    29    2
    50    28    54    1
    51    29    30    1
    52    29    32    1
    53    30    31    2
    54    30    55    1
    55    31    56    1
    56    32    33    2
    57    32    34    1
    58    35    36    2
    59    35    57    1
    60    36    37    1
    61    37    38    1
    62    38    58    1
    63    38    59    1
    64    38    60    1
