@<TRIPOS>MOLECULE
lig
  52   57 0 0 0
SMALL
NO_CHARGES


@<TRIPOS>ATOM
      1 C_00         -5.2528   -4.0279   13.4883 c4      1  lig       0.162984
      2 C_01         -4.5590   -2.6369   13.4544 c5      1  lig      -0.017551
      3 N_02         -3.8919   -2.2470   14.7137 n0      1  lig      -0.452628
      4 C_03         -4.7198   -2.6287   15.8665 c6      1  lig      -0.047045
      5 C_04         -5.4261   -3.9885   15.8402 c7      1  lig       0.153260
      6 O_05         -6.1177   -4.1508   14.6092 o0      1  lig      -0.418476
      7 C_06         -2.5101   -2.0763   14.8035 c8      1  lig       0.175636
      8 C_07         -1.8815   -1.1097   14.0182 c9      1  lig      -0.197195
      9 C_08         -0.5196   -0.8466   14.1763 cb      1  lig      -0.103314
     10 C_09          0.2358   -1.5888   15.0999 ci      1  lig       0.061342
     11 N_0a          1.6095   -1.3595   15.3505 ng      1  lig      -0.162567
     12 C_0b          2.5288   -0.4326   14.7915 cj      1  lig       0.048794
     13 N_0c          2.1515    0.4038   13.7773 nr      1  lig      -0.168448
     14 C_0d          3.0856    1.2408   13.2315 ck      1  lig       0.037543
     15 C_0e          4.3919    1.2835   13.6955 cm      1  lig      -0.249555
     16 N_0f          4.7346    0.4998   14.7545 nw      1  lig       0.162725
     17 C_0g          5.8922    0.3978   15.4788 cn      1  lig      -0.377633
     18 C_0h          5.6049   -0.5481   16.4962 co      1  lig       0.032912
     19 N_0i          4.3940   -1.0599   16.3510 nA      1  lig      -0.534827
     20 C_0j          3.8344   -0.3880   15.3306 cq      1  lig       0.406876
     21 C_0k          2.6174    2.1451   12.1221 cr      1  lig       0.007604
     22 C_0l          3.5375    2.6360   11.1692 cs      1  lig      -0.129716
     23 C_0m          3.1548    3.4584   10.1087 ct      1  lig      -0.255090
     24 C_0n          1.8089    3.8176   10.0151 cw      1  lig       0.050095
     25 C_0o          0.9999    4.6108    9.1243 cA      1  lig       0.076541
     26 N_0p         -0.2405    4.6150    9.5301 nB      1  lig      -0.451023
     27 N_0q         -0.3274    3.8782   10.6339 nC      1  lig      -0.077539
     28 C_0r          0.8831    3.3398   10.9927 cB      1  lig       0.065528
     29 C_0s          1.2567    2.5006   12.0460 cC      1  lig      -0.148546
     30 C_0t         -0.3865   -2.5955   15.8355 cD      1  lig      -0.299420
     31 C_0u         -1.7498   -2.8337   15.7040 cE      1  lig      -0.067333
     32 H_0v         -4.5051   -4.8201   13.5326 h0      1  lig       0.036426
     33 H_0w         -5.8382   -4.1961   12.5835 h6      1  lig       0.036426
     34 H_0x         -3.8574   -2.6184   12.6184 h7      1  lig       0.084027
     35 H_0y         -5.3171   -1.8948   13.2323 h8      1  lig       0.084027
     36 H_0z         -4.1680   -2.4954   16.7966 h9      1  lig       0.095072
     37 H_10         -5.4757   -1.8452   15.9095 hb      1  lig       0.095072
     38 H_11         -4.6783   -4.7685   15.9759 hd      1  lig       0.034721
     39 H_12         -6.1259   -4.0493   16.6787 he      1  lig       0.034721
     40 H_13         -2.4632   -0.5270   13.3256 hf      1  lig       0.162017
     41 H_14         -0.0772   -0.0608   13.5996 hg      1  lig       0.086974
     42 H_15          2.0056   -1.9485   16.0686 hh      1  lig       0.223708
     43 H_16          5.1492    1.9467   13.3043 hi      1  lig       0.196170
     44 H_17          6.7687    0.9973   15.2711 hj      1  lig       0.231378
     45 H_18          6.2551   -0.8495   17.2990 hk      1  lig       0.166940
     46 H_19          4.5745    2.3502   11.2465 hl      1  lig       0.122017
     47 H_1a          3.8814    3.8031    9.3814 hm      1  lig       0.171312
     48 H_1b          1.3048    5.1494    8.2407 hq      1  lig       0.136323
     49 H_1c         -1.2122    3.7667   11.1066 hr      1  lig       0.309216
     50 H_1d          0.5434    2.1468   12.7781 ht      1  lig       0.108020
     51 H_1e          0.1974   -3.1804   16.5382 hu      1  lig       0.179518
     52 H_1f         -2.2129   -3.6048   16.3012 hv      1  lig       0.121981
@<TRIPOS>BOND
     1     1     2    1
     2     1     6    1
     3     1    32    1
     4     1    33    1
     5     2     3    1
     6     2    34    1
     7     2    35    1
     8     3     4    1
     9     3     7    1
    10     4     5    1
    11     4    36    1
    12     4    37    1
    13     5     6    1
    14     5    38    1
    15     5    39    1
    16     7     8    2
    17     7    31    1
    18     8     9    1
    19     8    40    1
    20     9    10    2
    21     9    41    1
    22    10    11    1
    23    10    30    1
    24    11    12    1
    25    11    42    1
    26    12    13    2
    27    12    20    1
    28    13    14    1
    29    14    15    2
    30    14    21    1
    31    15    16    1
    32    15    43    1
    33    16    17    1
    34    16    20    1
    35    17    18    2
    36    17    44    1
    37    18    19    1
    38    18    45    1
    39    19    20    2
    40    21    22    2
    41    21    29    1
    42    22    23    1
    43    22    46    1
    44    23    24    2
    45    23    47    1
    46    24    25    1
    47    24    28    1
    48    25    26    2
    49    25    48    1
    50    26    27    1
    51    27    28    1
    52    27    49    1
    53    28    29    2
    54    29    50    1
    55    30    31    2
    56    30    51    1
    57    31    52    1
