@<TRIPOS>MOLECULE
lig
  51   54 0 0 0
SMALL
NO_CHARGES


@<TRIPOS>ATOM
      1 C_00         -2.4212    4.6361   12.3150 c4      1  lig      -0.088070
      2 N_01         -1.0554    4.1831   12.0682 n0      1  lig      -0.308544
      3 C_02         -0.5783    3.7648   10.8955 c5      1  lig       0.515553
      4 O_03         -1.2609    3.7178    9.8765 o0      1  lig      -0.561077
      5 C_04          0.8660    3.3707   10.9895 c6      1  lig      -0.093369
      6 C_05          1.7879    3.8078   10.0318 c7      1  lig      -0.056347
      7 C_06          3.1294    3.4499   10.1277 c8      1  lig      -0.222097
      8 C_07          3.5566    2.6280   11.1666 c9      1  lig      -0.100808
      9 C_08          2.6564    2.1560   12.1340 cb      1  lig       0.033523
     10 C_09          1.3140    2.5576   12.0419 ci      1  lig      -0.079663
     11 C_0a          3.1227    1.2406   13.2181 cj      1  lig      -0.019508
     12 C_0b          4.4207    1.3039   13.7175 ck      1  lig      -0.284225
     13 N_0c          4.7482    0.4921   14.7654 ng      1  lig       0.143520
     14 C_0d          5.8898    0.3836   15.5035 cm      1  lig      -0.376074
     15 C_0e          5.5715   -0.5089   16.5177 cn      1  lig       0.076904
     16 N_0f          4.3818   -1.0543   16.3920 nr      1  lig      -0.572985
     17 C_0g          3.8330   -0.4170   15.3252 co      1  lig       0.424065
     18 C_0h          2.5452   -0.4689   14.7536 cq      1  lig       0.102033
     19 N_0i          1.5930   -1.3491   15.3060 nw      1  lig      -0.340864
     20 C_0j          0.2220   -1.5829   15.0890 cr      1  lig      -0.004102
     21 C_0k         -0.3863   -2.6106   15.8150 cs      1  lig      -0.154532
     22 C_0l         -1.7497   -2.8673   15.6804 ct      1  lig      -0.244899
     23 C_0m         -2.5261   -2.1057   14.8053 cw      1  lig       0.207849
     24 O_0n         -3.8740   -2.3535   14.7166 o1      1  lig      -0.363052
     25 C_0o         -4.2555   -3.1029   13.5707 cA      1  lig      -0.026797
     26 C_0p         -1.9389   -1.0760   14.0580 cB      1  lig       0.139397
     27 O_0q         -2.6991   -0.3052   13.2022 o2      1  lig      -0.195461
     28 C_0r         -2.0020    0.6747   12.5251 cC      1  lig      -0.210646
     29 C_0s         -0.5664   -0.8256   14.2115 cD      1  lig      -0.141769
     30 N_0t          2.2178    0.3551   13.7190 nA      1  lig      -0.069124
     31 H_0u         -2.5270    4.9174   13.3627 h0      1  lig       0.069370
     32 H_0v         -3.1185    3.8312   12.0826 h6      1  lig       0.069370
     33 H_0w         -2.6378    5.4979   11.6837 h7      1  lig       0.069370
     34 H_0x         -0.5302    4.2377   12.9293 h8      1  lig       0.261080
     35 H_0y          1.4564    4.4350    9.2166 h9      1  lig       0.144704
     36 H_0z          3.8342    3.7939    9.3845 hb      1  lig       0.159024
     37 H_10          4.5934    2.3309   11.2002 hd      1  lig       0.127921
     38 H_11          0.6053    2.2130   12.7810 he      1  lig       0.017930
     39 H_12          5.1701    2.0030   13.3719 hf      1  lig       0.219292
     40 H_13          6.7656    0.9739   15.2897 hg      1  lig       0.229128
     41 H_14          6.2089   -0.8330   17.3301 hh      1  lig       0.156182
     42 H_15          2.0245   -1.8853   16.0480 hi      1  lig       0.308158
     43 H_16          0.1911   -3.2101   16.5029 hj      1  lig       0.160127
     44 H_17         -2.2100   -3.6528   16.2607 hk      1  lig       0.175878
     45 H_18         -4.0223   -2.5652   12.6508 hl      1  lig       0.074749
     46 H_19         -5.3298   -3.2850   13.5913 hm      1  lig       0.074749
     47 H_1a         -3.7492   -4.0689   13.5480 hq      1  lig       0.074749
     48 H_1b         -2.6852    1.2258   11.8788 hr      1  lig       0.122464
     49 H_1c         -1.2219    0.2131   11.9198 ht      1  lig       0.122464
     50 H_1d         -1.5484    1.3591   13.2420 hu      1  lig       0.122464
     51 H_1e         -0.1547   -0.0168   13.6337 hv      1  lig       0.111996
@<TRIPOS>BOND
     1     1     2    1
     2     1    31    1
     3     1    32    1
     4     1    33    1
     5     2     3    1
     6     2    34    1
     7     3     4    2
     8     3     5    1
     9     5     6    2
    10     5    10    1
    11     6     7    1
    12     6    35    1
    13     7     8    2
    14     7    36    1
    15     8     9    1
    16     8    37    1
    17     9    10    2
    18     9    11    1
    19    10    38    1
    20    11    12    2
    21    11    30    1
    22    12    13    1
    23    12    39    1
    24    13    14    1
    25    13    17    1
    26    14    15    2
    27    14    40    1
    28    15    16    1
    29    15    41    1
    30    16    17    2
    31    17    18    1
    32    18    19    1
    33    18    30    2
    34    19    20    1
    35    19    42    1
    36    20    21    2
    37    20    29    1
    38    21    22    1
    39    21    43    1
    40    22    23    2
    41    22    44    1
    42    23    24    1
    43    23    26    1
    44    24    25    1
    45    25    45    1
    46    25    46    1
    47    25    47    1
    48    26    27    1
    49    26    29    2
    50    27    28    1
    51    28    48    1
    52    28    49    1
    53    28    50    1
    54    29    51    1
