@<TRIPOS>MOLECULE
lig
  47   51 0 0 0
SMALL
NO_CHARGES


@<TRIPOS>ATOM
      1 C_00         -4.2568   -3.1045   13.5692 c4      1  lig      -0.020680
      2 O_01         -3.8735   -2.3609   14.7157 o0      1  lig      -0.370506
      3 C_02         -2.5254   -2.1112   14.8167 c5      1  lig       0.148001
      4 C_03         -1.7461   -2.8700   15.6816 c6      1  lig      -0.122459
      5 C_04         -0.3903   -2.6103   15.8137 c7      1  lig      -0.308965
      6 C_05          0.2206   -1.5848   15.0868 c8      1  lig      -0.009855
      7 N_06          1.6038   -1.3598   15.3228 n0      1  lig      -0.124023
      8 C_07          2.5359   -0.4458   14.7609 c9      1  lig       0.017919
      9 N_08          2.1794    0.3745   13.7258 ng      1  lig      -0.099412
     10 C_09          3.1126    1.2387   13.2174 cb      1  lig       0.006093
     11 C_0a          4.4180    1.2838   13.7013 ci      1  lig      -0.231906
     12 N_0b          4.7460    0.4885   14.7593 nr      1  lig       0.142426
     13 C_0c          5.8978    0.3783   15.4862 cj      1  lig      -0.365822
     14 C_0d          5.5892   -0.5252   16.5282 ck      1  lig       0.030099
     15 N_0e          4.3768   -1.0429   16.3726 nw      1  lig      -0.536993
     16 C_0f          3.8366   -0.3928   15.3256 cm      1  lig       0.415449
     17 C_0g          2.6368    2.1616   12.1201 cn      1  lig       0.012469
     18 C_0h          3.5454    2.6408   11.1618 co      1  lig      -0.123602
     19 C_0i          3.1453    3.4625   10.1097 cq      1  lig      -0.263577
     20 C_0j          1.7994    3.8163   10.0176 cr      1  lig       0.051616
     21 C_0k          0.9914    4.5941    9.1197 cs      1  lig       0.073969
     22 N_0l         -0.2494    4.6053    9.5133 nA      1  lig      -0.445246
     23 N_0m         -0.3372    3.8935   10.6271 nB      1  lig      -0.081416
     24 C_0n          0.8851    3.3607   10.9950 ct      1  lig       0.070197
     25 C_0o          1.2726    2.5413   12.0626 cw      1  lig      -0.157183
     26 C_0p         -0.5549   -0.8187   14.1915 cA      1  lig      -0.043717
     27 C_0q         -1.9439   -1.0882   14.0610 cB      1  lig       0.127860
     28 O_0r         -2.7521   -0.3548   13.2056 o1      1  lig      -0.193109
     29 C_0s         -2.2313    0.6456   12.3518 cC      1  lig      -0.186096
     30 H_0t         -5.3359   -3.2524   13.5865 h0      1  lig       0.073441
     31 H_0u         -3.7887   -4.0896   13.5588 h6      1  lig       0.073441
     32 H_0v         -4.0122   -2.5810   12.6435 h7      1  lig       0.073441
     33 H_0w         -2.1953   -3.6619   16.2627 h8      1  lig       0.160200
     34 H_0x          0.1988   -3.2059   16.4986 h9      1  lig       0.188567
     35 H_0y          1.9915   -1.9358   16.0538 hb      1  lig       0.228701
     36 H_0z          5.1799    1.9624   13.3414 hd      1  lig       0.195262
     37 H_10          6.7849    0.9516   15.2761 he      1  lig       0.231353
     38 H_11          6.2311   -0.7975   17.3512 hf      1  lig       0.170349
     39 H_12          4.5870    2.3473   11.2231 hg      1  lig       0.122321
     40 H_13          3.8550    3.8058    9.3820 hh      1  lig       0.177022
     41 H_14          1.3018    5.1155    8.2351 hi      1  lig       0.138668
     42 H_15         -1.2265    3.7931   11.0919 hj      1  lig       0.308396
     43 H_16          0.5730    2.2156   12.8045 hk      1  lig       0.107967
     44 H_17         -0.1088   -0.0311   13.6242 hl      1  lig      -0.006503
     45 H_18         -3.0501    1.0729   11.7701 hm      1  lig       0.115281
     46 H_19         -1.5087    0.2343   11.6493 hq      1  lig       0.115281
     47 H_1a         -1.7811    1.4509   12.9278 hr      1  lig       0.115281
@<TRIPOS>BOND
     1     1     2    1
     2     1    30    1
     3     1    31    1
     4     1    32    1
     5     2     3    1
     6     3     4    2
     7     3    27    1
     8     4     5    1
     9     4    33    1
    10     5     6    2
    11     5    34    1
    12     6     7    1
    13     6    26    1
    14     7     8    1
    15     7    35    1
    16     8     9    2
    17     8    16    1
    18     9    10    1
    19    10    11    2
    20    10    17    1
    21    11    12    1
    22    11    36    1
    23    12    13    1
    24    12    16    1
    25    13    14    2
    26    13    37    1
    27    14    15    1
    28    14    38    1
    29    15    16    2
    30    17    18    2
    31    17    25    1
    32    18    19    1
    33    18    39    1
    34    19    20    2
    35    19    40    1
    36    20    21    1
    37    20    24    1
    38    21    22    2
    39    21    41    1
    40    22    23    1
    41    23    24    1
    42    23    42    1
    43    24    25    2
    44    25    43    1
    45    26    27    2
    46    26    44    1
    47    27    28    1
    48    28    29    1
    49    29    45    1
    50    29    46    1
    51    29    47    1
