@<TRIPOS>MOLECULE
lig
  62   67 0 0 0
SMALL
NO_CHARGES


@<TRIPOS>ATOM
      1 C_00         -4.2555   -3.1029   13.5707 c4      1  lig       0.020442
      2 O_01         -3.8740   -2.3535   14.7166 o0      1  lig      -0.368202
      3 C_02         -2.5261   -2.1057   14.8053 c5      1  lig       0.172079
      4 C_03         -1.7497   -2.8673   15.6804 c6      1  lig      -0.133624
      5 C_04         -0.3863   -2.6106   15.8150 c7      1  lig      -0.317030
      6 C_05          0.2220   -1.5829   15.0890 c8      1  lig      -0.002354
      7 N_06          1.5930   -1.3491   15.3060 n0      1  lig      -0.104229
      8 C_07          2.5452   -0.4689   14.7536 c9      1  lig       0.055587
      9 N_08          2.2178    0.3551   13.7190 ng      1  lig      -0.153348
     10 C_09          3.1227    1.2406   13.2181 cb      1  lig       0.010144
     11 C_0a          4.4207    1.3039   13.7175 ci      1  lig      -0.244813
     12 N_0b          4.7482    0.4921   14.7654 nr      1  lig       0.162838
     13 C_0c          5.8898    0.3836   15.5035 cj      1  lig      -0.382870
     14 C_0d          5.5715   -0.5089   16.5177 ck      1  lig       0.033763
     15 N_0e          4.3818   -1.0543   16.3920 nw      1  lig      -0.534299
     16 C_0f          3.8330   -0.4170   15.3252 cm      1  lig       0.396794
     17 C_0g          2.6564    2.1560   12.1340 cn      1  lig      -0.007909
     18 C_0h          3.5566    2.6280   11.1666 co      1  lig      -0.072166
     19 C_0i          3.1294    3.4499   10.1277 cq      1  lig      -0.218086
     20 C_0j          1.7879    3.8078   10.0318 cr      1  lig      -0.085160
     21 C_0k          0.8660    3.3707   10.9895 cs      1  lig      -0.049210
     22 C_0l          1.3140    2.5576   12.0419 ct      1  lig      -0.144892
     23 C_0m         -0.5783    3.7648   10.8956 cw      1  lig       0.511220
     24 O_0n         -1.2780    3.6594    9.8925 o1      1  lig      -0.544826
     25 N_0o         -1.0343    4.2553   12.0485 nA      1  lig      -0.297435
     26 C_0p         -2.3943    4.7285   12.2897 cA      1  lig       0.002234
     27 C_0q         -2.6544    5.5820   13.3553 cB      1  lig      -0.178229
     28 C_0r         -3.9490    6.0325   13.5849 cC      1  lig       0.036487
     29 C_0s         -4.9835    5.6294   12.7489 cD      1  lig      -0.551407
     30 C_0t         -4.7235    4.7759   11.6833 cE      1  lig      -0.000908
     31 C_0u         -3.4289    4.3254   11.4537 cF      1  lig      -0.040679
     32 C_0v         -6.3808    6.1155   12.9967 cG      1  lig       1.090639
     33 N_0w         -7.4427    5.4157   12.6869 nB      1  lig      -0.542198
     34 N_0x         -8.5101    6.1905   13.0642 nC      1  lig      -0.238085
     35 N_0y         -8.0145    7.3480   13.5959 nD      1  lig      -0.237292
     36 N_0z         -6.6463    7.2766   13.5417 nE      1  lig      -0.547702
     37 C_10         -0.5664   -0.8256   14.2115 cH      1  lig      -0.036314
     38 C_11         -1.9389   -1.0760   14.0580 cI      1  lig       0.112736
     39 O_12         -2.6991   -0.3052   13.2021 o2      1  lig      -0.199091
     40 C_13         -2.0020    0.6746   12.5251 cJ      1  lig      -0.092690
     41 H_14         -3.7528   -4.0708   13.5508 h0      1  lig       0.058962
     42 H_15         -4.0179   -2.5675   12.6505 h6      1  lig       0.058962
     43 H_16         -5.3306   -3.2808   13.5889 h7      1  lig       0.058962
     44 H_17         -2.2100   -3.6528   16.2607 h8      1  lig       0.149620
     45 H_18          0.1911   -3.2101   16.5029 h9      1  lig       0.187180
     46 H_19          2.0246   -1.8858   16.0475 hb      1  lig       0.204899
     47 H_1a          5.1701    2.0030   13.3719 hd      1  lig       0.186497
     48 H_1b          6.7656    0.9739   15.2897 he      1  lig       0.229829
     49 H_1c          6.2089   -0.8330   17.3301 hf      1  lig       0.162180
     50 H_1d          4.5934    2.3309   11.2002 hg      1  lig       0.117070
     51 H_1e          3.8342    3.7939    9.3845 hh      1  lig       0.152108
     52 H_1f          1.4564    4.4350    9.2166 hi      1  lig       0.149269
     53 H_1g          0.6053    2.2130   12.7811 hj      1  lig       0.184140
     54 H_1h         -0.4948    4.3595   12.8959 hk      1  lig       0.224375
     55 H_1i         -1.8489    5.8959   14.0061 hl      1  lig       0.119740
     56 H_1j         -4.1515    6.6970   14.4145 hm      1  lig       0.057042
     57 H_1k         -5.5289    4.4620   11.0325 hq      1  lig       0.054492
     58 H_1l         -3.2264    3.6609   10.6241 hr      1  lig       0.114242
     59 H_1m         -0.1547   -0.0168   13.6337 ht      1  lig      -0.046565
     60 H_1n         -2.6851    1.2257   11.8787 hu      1  lig       0.099027
     61 H_1o         -1.2218    0.2131   11.9198 hv      1  lig       0.099027
     62 H_1p         -1.5485    1.3591   13.2420 hy      1  lig       0.099027
@<TRIPOS>BOND
     1     1     2    1
     2     1    41    1
     3     1    42    1
     4     1    43    1
     5     2     3    1
     6     3     4    2
     7     3    38    1
     8     4     5    1
     9     4    44    1
    10     5     6    2
    11     5    45    1
    12     6     7    1
    13     6    37    1
    14     7     8    1
    15     7    46    1
    16     8     9    2
    17     8    16    1
    18     9    10    1
    19    10    11    2
    20    10    17    1
    21    11    12    1
    22    11    47    1
    23    12    13    1
    24    12    16    1
    25    13    14    2
    26    13    48    1
    27    14    15    1
    28    14    49    1
    29    15    16    2
    30    17    18    2
    31    17    22    1
    32    18    19    1
    33    18    50    1
    34    19    20    2
    35    19    51    1
    36    20    21    1
    37    20    52    1
    38    21    22    2
    39    21    23    1
    40    22    53    1
    41    23    24    2
    42    23    25    1
    43    25    26    1
    44    25    54    1
    45    26    27    2
    46    26    31    1
    47    27    28    1
    48    27    55    1
    49    28    29    2
    50    28    56    1
    51    29    30    1
    52    29    32    1
    53    30    31    2
    54    30    57    1
    55    31    58    1
    56    32    36    2
    57    32    33    1
    58    33    34    1
    59    34    35    2
    60    35    36    1
    61    37    38    2
    62    37    59    1
    63    38    39    1
    64    39    40    1
    65    40    60    1
    66    40    61    1
    67    40    62    1
