@<TRIPOS>MOLECULE
lig
  54   59 0 0 0
SMALL
NO_CHARGES


@<TRIPOS>ATOM
      1 O_00         -6.7377   -5.5954   13.7078 o0      1  lig      -0.567393
      2 S_01         -6.4109   -4.1827   13.9768 s0      1  lig       0.924654
      3 O_02         -7.4853   -3.1691   13.9645 o1      1  lig      -0.553444
      4 C_03         -5.0718   -3.6553   12.8024 c4      1  lig      -0.208432
      5 C_04         -4.5093   -2.3051   13.2740 c5      1  lig      -0.057866
      6 N_05         -3.8452   -2.4085   14.5766 n0      1  lig      -0.262307
      7 C_06         -4.8019   -2.6733   15.6705 c6      1  lig      -0.064996
      8 C_07         -5.4613   -4.0603   15.5733 c7      1  lig      -0.200444
      9 C_08         -2.5026   -2.1121   14.7721 c8      1  lig       0.069444
     10 C_09         -1.7498   -2.8472   15.6821 c9      1  lig      -0.206324
     11 C_0a         -0.3947   -2.5947   15.8318 cb      1  lig      -0.166206
     12 C_0b          0.2287   -1.5788   15.1039 ci      1  lig       0.024487
     13 N_0c          1.6093   -1.3648   15.3339 ng      1  lig      -0.163657
     14 C_0d          2.5318   -0.4383   14.7801 cj      1  lig       0.069714
     15 N_0e          2.1634    0.3921   13.7540 nr      1  lig      -0.154678
     16 C_0f          3.0974    1.2392   13.2246 ck      1  lig       0.008658
     17 C_0g          4.4044    1.2817   13.6944 cm      1  lig      -0.224247
     18 N_0h          4.7423    0.4925   14.7592 nw      1  lig       0.163396
     19 C_0i          5.8954    0.3870   15.4778 cn      1  lig      -0.364394
     20 C_0j          5.5990   -0.5412   16.5094 co      1  lig       0.019392
     21 N_0k          4.3871   -1.0534   16.3565 nA      1  lig      -0.524714
     22 C_0l          3.8359   -0.3945   15.3234 cq      1  lig       0.385607
     23 C_0m          2.6253    2.1534   12.1201 cr      1  lig       0.005870
     24 C_0n          3.5412    2.6427   11.1681 cs      1  lig      -0.116606
     25 C_0o          3.1527    3.4644   10.1100 ct      1  lig      -0.266061
     26 C_0p          1.8061    3.8184   10.0146 cw      1  lig       0.058991
     27 C_0q          0.9967    4.6031    9.1196 cA      1  lig       0.069163
     28 N_0r         -0.2439    4.6096    9.5190 nB      1  lig      -0.442711
     29 N_0s         -0.3333    3.8812   10.6311 nC      1  lig      -0.095590
     30 C_0t          0.8847    3.3487   10.9898 cB      1  lig       0.068911
     31 C_0u          1.2610    2.5149   12.0531 cC      1  lig      -0.147630
     32 C_0v         -0.5302   -0.8124   14.2060 cD      1  lig      -0.132728
     33 C_0w         -1.8875   -1.0872   14.0350 cE      1  lig      -0.082756
     34 H_0x         -4.2870   -4.4115   12.7932 h0      1  lig       0.128335
     35 H_0y         -5.5077   -3.5615   11.8091 h6      1  lig       0.128335
     36 H_0z         -3.7877   -1.9706   12.5239 h7      1  lig       0.103085
     37 H_10         -5.3210   -1.5976   13.2696 h8      1  lig       0.103085
     38 H_11         -4.3225   -2.5661   16.6462 h9      1  lig       0.108721
     39 H_12         -5.5749   -1.8980   15.6876 hb      1  lig       0.108721
     40 H_13         -4.6888   -4.8310   15.5950 hd      1  lig       0.125731
     41 H_14         -6.1589   -4.2289   16.3924 he      1  lig       0.125731
     42 H_15         -2.2114   -3.6432   16.2513 hf      1  lig       0.158590
     43 H_16          0.1860   -3.1935   16.5202 hg      1  lig       0.161186
     44 H_17          2.0087   -1.9701   16.0399 hh      1  lig       0.221680
     45 H_18          5.1653    1.9492   13.3186 hi      1  lig       0.189537
     46 H_19          6.7769    0.9748   15.2739 hj      1  lig       0.230344
     47 H_1a          6.2430   -0.8293   17.3244 hk      1  lig       0.172937
     48 H_1b          4.5805    2.3555   11.2394 hl      1  lig       0.120764
     49 H_1c          3.8720    3.8097    9.3836 hm      1  lig       0.174977
     50 H_1d          1.3028    5.1343    8.2328 hq      1  lig       0.140167
     51 H_1e         -1.2191    3.7739   11.0972 hr      1  lig       0.319186
     52 H_1f          0.5545    2.1699   12.7872 ht      1  lig       0.108889
     53 H_1g         -0.0886   -0.0159   13.6433 hu      1  lig       0.089721
     54 H_1h         -2.4699   -0.4961   13.3471 hv      1  lig       0.115175
@<TRIPOS>BOND
     1     1     2    2
     2     2     3    2
     3     2     4    1
     4     2     8    1
     5     4     5    1
     6     4    34    1
     7     4    35    1
     8     5     6    1
     9     5    36    1
    10     5    37    1
    11     6     7    1
    12     6     9    1
    13     7     8    1
    14     7    38    1
    15     7    39    1
    16     8    40    1
    17     8    41    1
    18     9    10    2
    19     9    33    1
    20    10    11    1
    21    10    42    1
    22    11    12    2
    23    11    43    1
    24    12    13    1
    25    12    32    1
    26    13    14    1
    27    13    44    1
    28    14    15    2
    29    14    22    1
    30    15    16    1
    31    16    17    2
    32    16    23    1
    33    17    18    1
    34    17    45    1
    35    18    19    1
    36    18    22    1
    37    19    20    2
    38    19    46    1
    39    20    21    1
    40    20    47    1
    41    21    22    2
    42    23    24    2
    43    23    31    1
    44    24    25    1
    45    24    48    1
    46    25    26    2
    47    25    49    1
    48    26    27    1
    49    26    30    1
    50    27    28    2
    51    27    50    1
    52    28    29    1
    53    29    30    1
    54    29    51    1
    55    30    31    2
    56    31    52    1
    57    32    33    2
    58    32    53    1
    59    33    54    1
