@<TRIPOS>MOLECULE
lig
  50   54 0 0 0
SMALL
NO_CHARGES


@<TRIPOS>ATOM
      1 C_00         -4.2567   -3.1047   13.5688 c4      1  lig      -0.025655
      2 O_01         -3.8734   -2.3604   14.7149 o0      1  lig      -0.369252
      3 C_02         -2.5253   -2.1111   14.8171 c5      1  lig       0.157026
      4 C_03         -1.7475   -2.8730   15.6782 c6      1  lig      -0.137502
      5 C_04         -0.3907   -2.6182   15.8081 c7      1  lig      -0.295048
      6 C_05          0.2216   -1.5894   15.0857 c8      1  lig      -0.017491
      7 N_06          1.6073   -1.3712   15.3149 n0      1  lig      -0.115764
      8 C_07          2.5355   -0.4471   14.7615 c9      1  lig       0.026972
      9 N_08          2.1757    0.3798   13.7323 ng      1  lig      -0.120697
     10 C_09          3.1108    1.2385   13.2179 cb      1  lig       0.019769
     11 C_0a          4.4177    1.2796   13.6973 ci      1  lig      -0.237264
     12 N_0b          4.7459    0.4877   14.7580 nr      1  lig       0.144564
     13 C_0c          5.8989    0.3777   15.4842 cj      1  lig      -0.361687
     14 C_0d          5.5905   -0.5278   16.5266 ck      1  lig       0.031646
     15 N_0e          4.3783   -1.0442   16.3710 nw      1  lig      -0.534786
     16 C_0f          3.8361   -0.3924   15.3256 cm      1  lig       0.402453
     17 C_0g          2.6345    2.1599   12.1209 cn      1  lig       0.017133
     18 C_0h          3.5455    2.6449   11.1653 co      1  lig      -0.148596
     19 C_0i          3.1472    3.4641   10.1113 cq      1  lig      -0.228863
     20 C_0j          1.8026    3.8166   10.0162 cr      1  lig       0.024802
     21 C_0k          0.9964    4.5969    9.1149 cs      1  lig       0.015964
     22 N_0l         -0.2457    4.6110    9.5049 nA      1  lig      -0.443762
     23 N_0m         -0.3357    3.9010   10.6180 nB      1  lig       0.183458
     24 C_0n         -1.6267    3.7825   11.2689 ct      1  lig      -0.097133
     25 C_0o          0.8830    3.3583   10.9929 cw      1  lig       0.038970
     26 C_0p          1.2696    2.5335   12.0602 cA      1  lig      -0.142913
     27 C_0q         -0.5547   -0.8145   14.1988 cB      1  lig      -0.065905
     28 C_0r         -1.9437   -1.0858   14.0662 cC      1  lig       0.145079
     29 O_0s         -2.7514   -0.3534   13.2139 o1      1  lig      -0.244201
     30 C_0t         -2.2220    0.6070   12.3331 cD      1  lig      -0.090540
     31 H_0u         -5.3359   -3.2534   13.5870 h0      1  lig       0.075713
     32 H_0v         -3.7874   -4.0892   13.5581 h6      1  lig       0.075713
     33 H_0w         -4.0127   -2.5809   12.6432 h7      1  lig       0.075713
     34 H_0x         -2.1986   -3.6652   16.2573 h8      1  lig       0.162209
     35 H_0y          0.1975   -3.2194   16.4879 h9      1  lig       0.185186
     36 H_0z          2.0047   -1.9732   16.0205 hb      1  lig       0.225292
     37 H_10          5.1816    1.9533   13.3327 hd      1  lig       0.195165
     38 H_11          6.7844    0.9544   15.2754 he      1  lig       0.229259
     39 H_12          6.2308   -0.8005   17.3497 hf      1  lig       0.168701
     40 H_13          4.5872    2.3567   11.2306 hg      1  lig       0.124163
     41 H_14          3.8598    3.8084    9.3838 hh      1  lig       0.170921
     42 H_15          1.3099    5.1193    8.2308 hi      1  lig       0.153390
     43 H_16         -1.5635    4.1826   12.2778 hj      1  lig       0.076319
     44 H_17         -1.8990    2.7466   11.2882 hk      1  lig       0.076319
     45 H_18         -2.4088    4.3136   10.7194 hl      1  lig       0.076319
     46 H_19          0.5682    2.1998   12.8003 hm      1  lig       0.098118
     47 H_1a         -0.1091   -0.0207   13.6374 hq      1  lig       0.024066
     48 H_1b         -3.0436    1.0382   11.7546 hr      1  lig       0.092219
     49 H_1c         -1.5161    0.1773   11.6242 ht      1  lig       0.092219
     50 H_1d         -1.7468    1.4118   12.8931 hu      1  lig       0.092219
@<TRIPOS>BOND
     1     1     2    1
     2     1    31    1
     3     1    32    1
     4     1    33    1
     5     2     3    1
     6     3     4    2
     7     3    28    1
     8     4     5    1
     9     4    34    1
    10     5     6    2
    11     5    35    1
    12     6     7    1
    13     6    27    1
    14     7     8    1
    15     7    36    1
    16     8     9    2
    17     8    16    1
    18     9    10    1
    19    10    11    2
    20    10    17    1
    21    11    12    1
    22    11    37    1
    23    12    13    1
    24    12    16    1
    25    13    14    2
    26    13    38    1
    27    14    15    1
    28    14    39    1
    29    15    16    2
    30    17    18    2
    31    17    26    1
    32    18    19    1
    33    18    40    1
    34    19    20    2
    35    19    41    1
    36    20    21    1
    37    20    25    1
    38    21    22    2
    39    21    42    1
    40    22    23    1
    41    23    24    1
    42    23    25    1
    43    24    43    1
    44    24    44    1
    45    24    45    1
    46    25    26    2
    47    26    46    1
    48    27    28    2
    49    27    47    1
    50    28    29    1
    51    29    30    1
    52    30    48    1
    53    30    49    1
    54    30    50    1
