@<TRIPOS>MOLECULE
lig
  51   55 0 0 0
SMALL
NO_CHARGES


@<TRIPOS>ATOM
      1 C_00         -4.2568   -3.1047   13.5691 c4      1  lig      -0.008165
      2 O_01         -3.8735   -2.3611   14.7159 o0      1  lig      -0.377131
      3 C_02         -2.5255   -2.1111   14.8166 c5      1  lig       0.155642
      4 C_03         -1.7467   -2.8699   15.6815 c6      1  lig      -0.122644
      5 C_04         -0.3906   -2.6103   15.8137 c7      1  lig      -0.318702
      6 C_05          0.2208   -1.5857   15.0868 c8      1  lig       0.004088
      7 N_06          1.6032   -1.3595   15.3238 n0      1  lig      -0.135549
      8 C_07          2.5348   -0.4457   14.7641 c9      1  lig       0.017347
      9 N_08          2.1779    0.3778   13.7292 ng      1  lig      -0.076957
     10 C_09          3.1185    1.2359   13.2212 cb      1  lig       0.016738
     11 C_0a          4.4181    1.2809   13.7047 ci      1  lig      -0.229871
     12 N_0b          4.7461    0.4870   14.7618 nr      1  lig       0.144247
     13 C_0c          5.8981    0.3788   15.4858 cj      1  lig      -0.371427
     14 C_0d          5.5910   -0.5280   16.5270 ck      1  lig       0.029392
     15 N_0e          4.3781   -1.0445   16.3723 nw      1  lig      -0.535631
     16 C_0f          3.8363   -0.3925   15.3256 cm      1  lig       0.404872
     17 C_0g          2.6611    2.1501   12.1240 cn      1  lig      -0.059375
     18 C_0h          3.5712    2.6353   11.1629 co      1  lig      -0.131919
     19 C_0i          3.1347    3.4612   10.1202 cq      1  lig      -0.309309
     20 C_0j          1.7926    3.8149   10.0376 cr      1  lig       0.330679
     21 O_0k          1.4009    4.6318    8.9894 o1      1  lig      -0.386359
     22 C_0l          0.0085    4.5902    8.6762 cs      1  lig       0.088172
     23 C_0m         -0.8186    4.7372    9.9574 ct      1  lig       0.013447
     24 N_0n         -0.4761    3.7058   10.9290 nA      1  lig      -0.574106
     25 C_0o          0.8817    3.3521   10.9992 cw      1  lig       0.126392
     26 C_0p          1.3168    2.5380   12.0350 cA      1  lig      -0.169643
     27 C_0q         -0.5547   -0.8194   14.1898 cB      1  lig      -0.035274
     28 C_0r         -1.9431   -1.0889   14.0597 cC      1  lig       0.116380
     29 O_0s         -2.7507   -0.3535   13.2059 o2      1  lig      -0.188931
     30 C_0t         -2.2107    0.5014   12.2156 cD      1  lig      -0.167483
     31 H_0u         -5.3360   -3.2526   13.5865 h0      1  lig       0.069247
     32 H_0v         -3.7882   -4.0895   13.5586 h6      1  lig       0.069247
     33 H_0w         -4.0119   -2.5815   12.6433 h7      1  lig       0.069247
     34 H_0x         -2.1972   -3.6612   16.2628 h8      1  lig       0.158129
     35 H_0y          0.1988   -3.2050   16.4994 h9      1  lig       0.189566
     36 H_0z          1.9921   -1.9379   16.0547 hb      1  lig       0.228895
     37 H_10          5.1792    1.9587   13.3427 hd      1  lig       0.189111
     38 H_11          6.7836    0.9552   15.2767 he      1  lig       0.232030
     39 H_12          6.2332   -0.8019   17.3497 hf      1  lig       0.168969
     40 H_13          4.6084    2.3515   11.2173 hg      1  lig       0.144389
     41 H_14          3.8361    3.8129    9.3818 hh      1  lig       0.179744
     42 H_15         -0.2487    3.6561    8.1758 hi      1  lig       0.075120
     43 H_16         -0.2439    5.4020    7.9931 hj      1  lig       0.075120
     44 H_17         -1.8882    4.6243    9.7487 hk      1  lig       0.065662
     45 H_18         -0.7133    5.7290   10.3994 hl      1  lig       0.065662
     46 H_19         -1.1280    3.4995   11.6583 hm      1  lig       0.357433
     47 H_1a          0.6104    2.2087   12.7810 hq      1  lig       0.116690
     48 H_1b         -0.1096   -0.0303   13.6230 hr      1  lig      -0.020671
     49 H_1c         -3.0323    0.9527   11.6561 ht      1  lig       0.105830
     50 H_1d         -1.5950   -0.0476   11.5044 hu      1  lig       0.105830
     51 H_1e         -1.6381    1.3072   12.6663 hv      1  lig       0.105830
@<TRIPOS>BOND
     1     1     2    1
     2     1    31    1
     3     1    32    1
     4     1    33    1
     5     2     3    1
     6     3     4    2
     7     3    28    1
     8     4     5    1
     9     4    34    1
    10     5     6    2
    11     5    35    1
    12     6     7    1
    13     6    27    1
    14     7     8    1
    15     7    36    1
    16     8     9    2
    17     8    16    1
    18     9    10    1
    19    10    11    2
    20    10    17    1
    21    11    12    1
    22    11    37    1
    23    12    13    1
    24    12    16    1
    25    13    14    2
    26    13    38    1
    27    14    15    1
    28    14    39    1
    29    15    16    2
    30    17    18    2
    31    17    26    1
    32    18    19    1
    33    18    40    1
    34    19    20    2
    35    19    41    1
    36    20    21    1
    37    20    25    1
    38    21    22    1
    39    22    23    1
    40    22    42    1
    41    22    43    1
    42    23    24    1
    43    23    44    1
    44    23    45    1
    45    24    25    1
    46    24    46    1
    47    25    26    2
    48    26    47    1
    49    27    28    2
    50    27    48    1
    51    28    29    1
    52    29    30    1
    53    30    49    1
    54    30    50    1
    55    30    51    1
