@<TRIPOS>MOLECULE
lig
  51   54 0 0 0
SMALL
NO_CHARGES


@<TRIPOS>ATOM
      1 C_00         -4.2658   -3.1175   13.5713 c4      1  lig      -0.000867
      2 O_01         -3.8897   -2.4164   14.7436 o0      1  lig      -0.373453
      3 C_02         -2.5439   -2.1718   14.8418 c5      1  lig       0.166657
      4 C_03         -1.7693   -2.9126   15.7244 c6      1  lig      -0.128067
      5 C_04         -0.4086   -2.6509   15.8610 c7      1  lig      -0.324368
      6 C_05          0.2048   -1.6479   15.1096 c8      1  lig       0.008031
      7 N_06          1.6017   -1.4006   15.3489 n0      1  lig      -0.120960
      8 C_07          2.5425   -0.4814   14.7772 c9      1  lig       0.002351
      9 N_08          2.1966    0.3306   13.7372 ng      1  lig      -0.078787
     10 C_09          3.1151    1.2253   13.2359 cb      1  lig       0.016109
     11 C_0a          4.4125    1.2753   13.7158 ci      1  lig      -0.244732
     12 N_0b          4.7468    0.4823   14.7726 nr      1  lig       0.149153
     13 C_0c          5.9017    0.3875   15.4968 cj      1  lig      -0.376443
     14 C_0d          5.6113   -0.5378   16.5263 ck      1  lig       0.047142
     15 N_0e          4.3968   -1.0589   16.3854 nw      1  lig      -0.538074
     16 C_0f          3.8461   -0.4133   15.3411 cm      1  lig       0.416616
     17 C_0g          2.6468    2.1713   12.1254 cn      1  lig      -0.037451
     18 C_0h          1.2968    2.6023   12.0851 co      1  lig      -0.112028
     19 C_0i          0.8699    3.4876   11.0892 cq      1  lig      -0.160873
     20 C_0j          1.7721    3.9706   10.1365 cr      1  lig      -0.078966
     21 C_0k          3.0808    3.5379   10.1569 cs      1  lig      -0.206440
     22 C_0l          3.5135    2.6334   11.0944 ct      1  lig       0.096796
     23 C_0m          4.9035    2.1468   10.9601 cw      1  lig      -0.162950
     24 C_0n          1.3475    4.9212    9.0657 cA      1  lig       0.763228
     25 O_0o          0.1679    5.0957    8.8335 o1      1  lig      -0.587970
     26 N_0p          2.3260    5.5415    8.3940 nA      1  lig      -0.913578
     27 C_0q         -0.5697   -0.9333   14.1871 cB      1  lig      -0.034338
     28 C_0r         -1.9604   -1.1834   14.0595 cC      1  lig       0.125147
     29 O_0s         -2.7686   -0.4755   13.1689 o2      1  lig      -0.217366
     30 C_0t         -2.2961    0.5699   12.3655 cD      1  lig      -0.140926
     31 H_0u         -5.3441   -3.2619   13.5806 h0      1  lig       0.066701
     32 H_0v         -3.7878   -4.0957   13.5514 h6      1  lig       0.066701
     33 H_0w         -4.0115   -2.5871   12.6508 h7      1  lig       0.066701
     34 H_0x         -2.2259   -3.6928   16.3199 h8      1  lig       0.158695
     35 H_0y          0.1739   -3.2287   16.5652 h9      1  lig       0.193069
     36 H_0z          1.9820   -1.9375   16.1133 hb      1  lig       0.222693
     37 H_10          5.1700    1.9545   13.3487 hd      1  lig       0.208876
     38 H_11          6.7839    0.9785   15.2881 he      1  lig       0.228247
     39 H_12          6.2593   -0.8148   17.3315 hf      1  lig       0.165050
     40 H_13          0.5957    2.2582   12.8300 hg      1  lig       0.129691
     41 H_14         -0.1662    3.8085   11.0690 hh      1  lig       0.150176
     42 H_15          3.7700    3.8907    9.4150 hi      1  lig       0.153464
     43 H_16          5.2620    2.3460   11.8705 hj      1  lig       0.056812
     44 H_17          5.3949    2.8482   10.3208 hk      1  lig       0.056812
     45 H_18          5.0504    1.1199   10.6395 hl      1  lig       0.056812
     46 H_19          2.1194    6.2002    7.6574 hm      1  lig       0.383842
     47 H_1a          3.2889    5.3426    8.6184 hq      1  lig       0.383842
     48 H_1b         -0.1342   -0.2419   13.6061 hr      1  lig      -0.042540
     49 H_1c         -3.0776    1.0040   11.7462 ht      1  lig       0.113921
     50 H_1d         -1.4823    0.2640   11.7134 hu      1  lig       0.113921
     51 H_1e         -2.0380    1.3248   13.0744 hv      1  lig       0.113921
@<TRIPOS>BOND
     1     1     2    1
     2     1    31    1
     3     1    32    1
     4     1    33    1
     5     2     3    1
     6     3     4    2
     7     3    28    1
     8     4     5    1
     9     4    34    1
    10     5     6    2
    11     5    35    1
    12     6     7    1
    13     6    27    1
    14     7     8    1
    15     7    36    1
    16     8     9    2
    17     8    16    1
    18     9    10    1
    19    10    11    2
    20    10    17    1
    21    11    12    1
    22    11    37    1
    23    12    13    1
    24    12    16    1
    25    13    14    2
    26    13    38    1
    27    14    15    1
    28    14    39    1
    29    15    16    2
    30    17    18    2
    31    17    22    1
    32    18    19    1
    33    18    40    1
    34    19    20    2
    35    19    41    1
    36    20    21    1
    37    20    24    1
    38    21    22    2
    39    21    42    1
    40    22    23    1
    41    23    43    1
    42    23    44    1
    43    23    45    1
    44    24    25    2
    45    24    26    1
    46    26    46    1
    47    26    47    1
    48    27    28    2
    49    27    48    1
    50    28    29    1
    51    29    30    1
    52    30    49    1
    53    30    50    1
    54    30    51    1
