@<TRIPOS>MOLECULE
lig
  48   51 0 0 0
SMALL
NO_CHARGES


@<TRIPOS>ATOM
      1 C_00         -4.2559   -3.1060   13.5669 c4      1  lig      -0.009554
      2 O_01         -3.8726   -2.3561   14.7087 o0      1  lig      -0.370574
      3 C_02         -2.5261   -2.1090   14.8139 c5      1  lig       0.151836
      4 C_03         -1.7497   -2.8677   15.6812 c6      1  lig      -0.122505
      5 C_04         -0.3968   -2.6084   15.8204 c7      1  lig      -0.318118
      6 C_05          0.2208   -1.5821   15.0957 c8      1  lig       0.000234
      7 N_06          1.6029   -1.3570   15.3324 n0      1  lig      -0.125896
      8 C_07          2.5301   -0.4418   14.7814 c9      1  lig       0.028164
      9 N_08          2.1713    0.3833   13.7481 ng      1  lig      -0.105247
     10 C_09          3.1089    1.2308   13.2274 cb      1  lig      -0.004930
     11 C_0a          4.4101    1.2783   13.7032 ci      1  lig      -0.212743
     12 N_0b          4.7426    0.4910   14.7676 nr      1  lig       0.129579
     13 C_0c          5.8953    0.3872   15.4836 cj      1  lig      -0.361899
     14 C_0d          5.5954   -0.5343   16.5177 ck      1  lig       0.032021
     15 N_0e          4.3825   -1.0512   16.3664 nw      1  lig      -0.533555
     16 C_0f          3.8364   -0.4021   15.3289 cm      1  lig       0.413151
     17 C_0g          2.6465    2.1385   12.1256 cn      1  lig       0.002751
     18 C_0h          3.5557    2.6368   11.1745 co      1  lig      -0.106137
     19 C_0i          3.1190    3.4676   10.1463 cq      1  lig      -0.158058
     20 C_0j          1.7635    3.8248   10.0594 cr      1  lig      -0.038367
     21 C_0k          0.8615    3.3448   11.0110 cs      1  lig      -0.183892
     22 C_0l          1.2990    2.5127   12.0324 ct      1  lig      -0.066861
     23 C_0m          1.2918    4.7293    8.9608 cw      1  lig       0.723754
     24 O_0n          2.0878    5.3456    8.2497 o1      1  lig      -0.580849
     25 N_0o         -0.0320    4.8143    8.7824 nA      1  lig      -0.904169
     26 C_0p         -0.5541   -0.8144   14.1977 cA      1  lig      -0.034171
     27 C_0q         -1.9430   -1.0833   14.0624 cB      1  lig       0.135055
     28 O_0r         -2.7475   -0.3431   13.2088 o2      1  lig      -0.215368
     29 C_0s         -2.2164    0.6551   12.3579 cC      1  lig      -0.118769
     30 H_0t         -5.3366   -3.2485   13.5818 h0      1  lig       0.069822
     31 H_0u         -3.7903   -4.0925   13.5604 h6      1  lig       0.069822
     32 H_0v         -4.0039   -2.5877   12.6407 h7      1  lig       0.069822
     33 H_0w         -2.2037   -3.6575   16.2628 h8      1  lig       0.160379
     34 H_0x          0.1911   -3.2025   16.5100 h9      1  lig       0.191988
     35 H_0y          1.9934   -1.9421   16.0553 hb      1  lig       0.225398
     36 H_0z          5.1714    1.9452   13.3228 hd      1  lig       0.196600
     37 H_10          6.7795    0.9683   15.2756 he      1  lig       0.231569
     38 H_11          6.2400   -0.8202   17.3279 hf      1  lig       0.170843
     39 H_12          4.5974    2.3606   11.2253 hg      1  lig       0.121695
     40 H_13          3.8290    3.8282    9.4160 hh      1  lig       0.155666
     41 H_14         -0.1777    3.6239   10.9656 hi      1  lig       0.145016
     42 H_15          0.5906    2.1614   12.7684 hj      1  lig       0.106296
     43 H_16         -0.4213    5.3894    8.0510 hk      1  lig       0.386835
     44 H_17         -0.6482    4.2950    9.3843 hl      1  lig       0.386835
     45 H_18         -0.1068   -0.0259   13.6327 hm      1  lig      -0.023176
     46 H_19         -3.0358    1.0794   11.7746 hq      1  lig       0.096569
     47 H_1a         -1.4924    0.2406   11.6554 hr      1  lig       0.096569
     48 H_1b         -1.7680    1.4642   12.9342 ht      1  lig       0.096569
@<TRIPOS>BOND
     1     1     2    1
     2     1    30    1
     3     1    31    1
     4     1    32    1
     5     2     3    1
     6     3     4    2
     7     3    27    1
     8     4     5    1
     9     4    33    1
    10     5     6    2
    11     5    34    1
    12     6     7    1
    13     6    26    1
    14     7     8    1
    15     7    35    1
    16     8     9    2
    17     8    16    1
    18     9    10    1
    19    10    11    2
    20    10    17    1
    21    11    12    1
    22    11    36    1
    23    12    13    1
    24    12    16    1
    25    13    14    2
    26    13    37    1
    27    14    15    1
    28    14    38    1
    29    15    16    2
    30    17    18    2
    31    17    22    1
    32    18    19    1
    33    18    39    1
    34    19    20    2
    35    19    40    1
    36    20    21    1
    37    20    23    1
    38    21    22    2
    39    21    41    1
    40    22    42    1
    41    23    24    2
    42    23    25    1
    43    25    43    1
    44    25    44    1
    45    26    27    2
    46    26    45    1
    47    27    28    1
    48    28    29    1
    49    29    46    1
    50    29    47    1
    51    29    48    1
