@<TRIPOS>MOLECULE
lig
  43   47 0 0 0
SMALL
NO_CHARGES


@<TRIPOS>ATOM
      1 C_00         -1.9509    0.6794   12.3551 c4      1  lig      -0.066449
      2 O_01         -2.6175   -0.2972   13.1574 o0      1  lig      -0.312305
      3 C_02         -1.8696   -1.0545   14.0449 c5      1  lig       0.224805
      4 C_03         -2.5006   -2.0822   14.7698 c6      1  lig      -0.240506
      5 C_04         -1.7540   -2.8524   15.6585 c7      1  lig      -0.120259
      6 C_05         -0.3950   -2.6038   15.8322 c8      1  lig      -0.267194
      7 C_06          0.2324   -1.5851   15.1260 c9      1  lig      -0.005906
      8 N_07          1.6168   -1.3648   15.3699 n0      1  lig      -0.161687
      9 C_08          2.5420   -0.4570   14.7968 cb      1  lig       0.030072
     10 N_09          2.1720    0.3831   13.7786 ng      1  lig      -0.110760
     11 C_0a          3.1103    1.2383   13.2419 ci      1  lig       0.021608
     12 C_0b          4.3968    1.2792   13.7037 cj      1  lig      -0.260557
     13 N_0c          4.7381    0.4944   14.7692 nr      1  lig       0.157290
     14 C_0d          5.8928    0.3893   15.4752 ck      1  lig      -0.368149
     15 C_0e          5.6110   -0.5494   16.5068 cm      1  lig       0.024575
     16 N_0f          4.4002   -1.0741   16.3612 nw      1  lig      -0.537086
     17 C_0g          3.8444   -0.3918   15.3407 cn      1  lig       0.423116
     18 C_0h          2.6282    2.1384   12.1226 co      1  lig       0.026346
     19 C_0i          3.5442    2.6282   11.1721 cq      1  lig      -0.124342
     20 C_0j          3.1497    3.4552   10.1130 cr      1  lig      -0.275713
     21 C_0k          1.8035    3.8107   10.0226 cs      1  lig       0.063219
     22 C_0l          0.9910    4.6054    9.1269 ct      1  lig       0.066828
     23 N_0m         -0.2498    4.6130    9.5297 nA      1  lig      -0.437530
     24 N_0n         -0.3276    3.8827   10.6287 nB      1  lig      -0.103968
     25 C_0o          0.8922    3.3455   10.9868 cw      1  lig       0.070416
     26 C_0p          1.2628    2.5119   12.0466 cA      1  lig      -0.153740
     27 C_0q         -0.5121   -0.8124   14.2226 cB      1  lig       0.020028
     28 H_0r         -2.6470    1.2080   11.7073 h0      1  lig       0.092005
     29 H_0s         -1.2045    0.2004   11.7318 h6      1  lig       0.092005
     30 H_0t         -1.4794    1.4174   12.9913 h7      1  lig       0.092005
     31 H_0u         -3.5460   -2.2812   14.6470 h8      1  lig       0.145308
     32 H_0v         -2.2312   -3.6425   16.2160 h9      1  lig       0.158059
     33 H_0w          0.1711   -3.2085   16.5377 hb      1  lig       0.172395
     34 H_0x          1.9989   -1.9290   16.1054 hd      1  lig       0.238639
     35 H_0y          5.1566    1.9436   13.3074 he      1  lig       0.201221
     36 H_0z          6.7779    0.9754   15.2698 hf      1  lig       0.231893
     37 H_10          6.2564   -0.8382   17.2944 hg      1  lig       0.172046
     38 H_11          4.5845    2.3474   11.2386 hh      1  lig       0.123033
     39 H_12          3.8685    3.8054    9.3873 hi      1  lig       0.180075
     40 H_13          1.3045    5.1360    8.2411 hj      1  lig       0.140303
     41 H_14         -1.2156    3.7788   11.0960 hk      1  lig       0.317127
     42 H_15          0.5640    2.1751   12.7727 hl      1  lig       0.099944
     43 H_16         -0.0605   -0.0305   13.6582 hm      1  lig      -0.038210
@<TRIPOS>BOND
     1     1     2    1
     2     1    28    1
     3     1    29    1
     4     1    30    1
     5     2     3    1
     6     3     4    2
     7     3    27    1
     8     4     5    1
     9     4    31    1
    10     5     6    2
    11     5    32    1
    12     6     7    1
    13     6    33    1
    14     7     8    1
    15     7    27    2
    16     8     9    1
    17     8    34    1
    18     9    10    2
    19     9    17    1
    20    10    11    1
    21    11    12    2
    22    11    18    1
    23    12    13    1
    24    12    35    1
    25    13    14    1
    26    13    17    1
    27    14    15    2
    28    14    36    1
    29    15    16    1
    30    15    37    1
    31    16    17    2
    32    18    19    2
    33    18    26    1
    34    19    20    1
    35    19    38    1
    36    20    21    2
    37    20    39    1
    38    21    22    1
    39    21    25    1
    40    22    23    2
    41    22    40    1
    42    23    24    1
    43    24    25    1
    44    24    41    1
    45    25    26    2
    46    26    42    1
    47    27    43    1
