@<TRIPOS>MOLECULE
lig
  48   51 0 0 0
SMALL
NO_CHARGES


@<TRIPOS>ATOM
      1 C_00         -4.2567   -3.1050   13.5684 c4      1  lig       0.020550
      2 O_01         -3.8734   -2.3611   14.7148 o0      1  lig      -0.375192
      3 C_02         -2.5247   -2.1101   14.8166 c5      1  lig       0.164327
      4 C_03         -1.7507   -2.8683   15.6828 c6      1  lig      -0.131672
      5 C_04         -0.3911   -2.6099   15.8185 c7      1  lig      -0.321416
      6 C_05          0.2170   -1.5863   15.0905 c8      1  lig       0.002283
      7 N_06          1.6046   -1.3615   15.3286 n0      1  lig      -0.114460
      8 C_07          2.5322   -0.4485   14.7676 c9      1  lig       0.047039
      9 N_08          2.1746    0.3813   13.7360 ng      1  lig      -0.120974
     10 C_09          3.1152    1.2349   13.2220 cb      1  lig       0.003983
     11 C_0a          4.4162    1.2784   13.7032 ci      1  lig      -0.238590
     12 N_0b          4.7450    0.4849   14.7598 nr      1  lig       0.158711
     13 C_0c          5.8984    0.3795   15.4856 cj      1  lig      -0.375190
     14 C_0d          5.5934   -0.5343   16.5244 ck      1  lig       0.028341
     15 N_0e          4.3805   -1.0504   16.3702 nw      1  lig      -0.524813
     16 C_0f          3.8378   -0.3985   15.3258 cm      1  lig       0.390788
     17 C_0g          2.6545    2.1505   12.1229 cn      1  lig      -0.002572
     18 C_0h          3.5650    2.6332   11.1660 co      1  lig      -0.060781
     19 C_0i          3.1279    3.4532   10.1263 cq      1  lig      -0.226425
     20 C_0j          1.7853    3.8163   10.0263 cr      1  lig      -0.107420
     21 C_0k          0.8655    3.3670   10.9906 cs      1  lig      -0.062690
     22 C_0l          1.3076    2.5389   12.0352 ct      1  lig      -0.100284
     23 C_0m         -0.6125    3.7616   10.9140 cw      1  lig       0.709708
     24 O_0n         -1.4124    3.3703   11.7502 o1      1  lig      -0.578399
     25 N_0o         -0.9623    4.5440    9.8958 nA      1  lig      -0.917545
     26 C_0p         -0.5525   -0.8154   14.1926 cA      1  lig      -0.037556
     27 C_0q         -1.9431   -1.0889   14.0634 cB      1  lig       0.138675
     28 O_0r         -2.7491   -0.3514   13.2105 o2      1  lig      -0.237332
     29 C_0s         -2.2119    0.5324   12.2516 cC      1  lig      -0.119819
     30 H_0t         -5.3371   -3.2473   13.5828 h0      1  lig       0.059125
     31 H_0u         -3.7923   -4.0918   13.5617 h6      1  lig       0.059125
     32 H_0v         -4.0053   -2.5854   12.6423 h7      1  lig       0.059125
     33 H_0w         -2.2045   -3.6577   16.2649 h8      1  lig       0.156052
     34 H_0x          0.1939   -3.2023   16.5060 h9      1  lig       0.191377
     35 H_0y          1.9934   -1.9429   16.0579 hb      1  lig       0.212600
     36 H_0z          5.1774    1.9554   13.3408 hd      1  lig       0.186973
     37 H_10          6.7817    0.9624   15.2771 he      1  lig       0.233125
     38 H_11          6.2343   -0.8101   17.3474 hf      1  lig       0.170049
     39 H_12          4.6048    2.3502   11.2176 hg      1  lig       0.122549
     40 H_13          3.8359    3.8027    9.3872 hh      1  lig       0.161641
     41 H_14          1.4656    4.4411    9.2087 hi      1  lig       0.140626
     42 H_15          0.6085    2.2013   12.7854 hj      1  lig       0.143964
     43 H_16         -1.9282    4.8274    9.7978 hk      1  lig       0.394594
     44 H_17         -0.2850    4.8642    9.2301 hl      1  lig       0.394594
     45 H_18         -0.1105   -0.0248   13.6275 hm      1  lig      -0.035122
     46 H_19         -3.0285    0.9892   11.6884 hq      1  lig       0.112776
     47 H_1a         -1.5629    0.0226   11.5419 hr      1  lig       0.112776
     48 H_1b         -1.6668    1.3176   12.7602 ht      1  lig       0.112776
@<TRIPOS>BOND
     1     1     2    1
     2     1    30    1
     3     1    31    1
     4     1    32    1
     5     2     3    1
     6     3     4    2
     7     3    27    1
     8     4     5    1
     9     4    33    1
    10     5     6    2
    11     5    34    1
    12     6     7    1
    13     6    26    1
    14     7     8    1
    15     7    35    1
    16     8     9    2
    17     8    16    1
    18     9    10    1
    19    10    11    2
    20    10    17    1
    21    11    12    1
    22    11    36    1
    23    12    13    1
    24    12    16    1
    25    13    14    2
    26    13    37    1
    27    14    15    1
    28    14    38    1
    29    15    16    2
    30    17    18    2
    31    17    22    1
    32    18    19    1
    33    18    39    1
    34    19    20    2
    35    19    40    1
    36    20    21    1
    37    20    41    1
    38    21    22    2
    39    21    23    1
    40    22    42    1
    41    23    24    2
    42    23    25    1
    43    25    43    1
    44    25    44    1
    45    26    27    2
    46    26    45    1
    47    27    28    1
    48    28    29    1
    49    29    46    1
    50    29    47    1
    51    29    48    1
