@<TRIPOS>MOLECULE
lig
  48   52 0 0 0
SMALL
NO_CHARGES


@<TRIPOS>ATOM
      1 C_00         -4.2567   -3.1041   13.5694 c4      1  lig       0.013515
      2 O_01         -3.8737   -2.3598   14.7157 o0      1  lig      -0.375522
      3 C_02         -2.5259   -2.1106   14.8172 c5      1  lig       0.160368
      4 C_03         -1.7455   -2.8698   15.6821 c6      1  lig      -0.126375
      5 C_04         -0.3904   -2.6103   15.8138 c7      1  lig      -0.321966
      6 C_05          0.2204   -1.5845   15.0865 c8      1  lig       0.008989
      7 N_06          1.6043   -1.3599   15.3203 n0      1  lig      -0.138388
      8 C_07          2.5377   -0.4463   14.7588 c9      1  lig       0.029551
      9 N_08          2.1842    0.3709   13.7215 ng      1  lig      -0.088834
     10 C_09          3.1172    1.2388   13.2173 cb      1  lig      -0.001687
     11 C_0a          4.4204    1.2848   13.7037 ci      1  lig      -0.222937
     12 N_0b          4.7469    0.4890   14.7614 nr      1  lig       0.138810
     13 C_0c          5.8976    0.3763   15.4868 cj      1  lig      -0.373152
     14 C_0d          5.5864   -0.5217   16.5304 ck      1  lig       0.030642
     15 N_0e          4.3754   -1.0422   16.3738 nw      1  lig      -0.540831
     16 C_0f          3.8369   -0.3917   15.3265 cm      1  lig       0.407684
     17 C_0g          2.6436    2.1633   12.1173 cn      1  lig      -0.046252
     18 C_0h          3.5480    2.6409   11.1599 co      1  lig      -0.130725
     19 C_0i          3.1566    3.4683   10.0981 cq      1  lig      -0.265444
     20 C_0j          1.8094    3.8079   10.0262 cr      1  lig       0.129872
     21 N_0k          1.1129    4.5678    9.1158 nA      1  lig      -0.304762
     22 C_0l         -0.1959    4.6369    9.4439 cs      1  lig      -0.166523
     23 C_0m         -0.4233    3.9255   10.6079 ct      1  lig      -0.290710
     24 C_0n          0.8581    3.3610   11.0052 cw      1  lig       0.076790
     25 C_0o          1.2923    2.5453   12.0556 cA      1  lig      -0.112723
     26 C_0p         -0.5553   -0.8190   14.1924 cB      1  lig      -0.026365
     27 C_0q         -1.9451   -1.0886   14.0616 cC      1  lig       0.117524
     28 O_0r         -2.7542   -0.3572   13.2046 o1      1  lig      -0.212439
     29 C_0s         -2.2337    0.6443   12.3523 cD      1  lig      -0.140152
     30 H_0t         -5.3357   -3.2522   13.5867 h0      1  lig       0.061841
     31 H_0u         -3.7894   -4.0896   13.5592 h6      1  lig       0.061841
     32 H_0v         -4.0126   -2.5803   12.6439 h7      1  lig       0.061841
     33 H_0w         -2.1924   -3.6626   16.2629 h8      1  lig       0.158064
     34 H_0x          0.1988   -3.2075   16.4976 h9      1  lig       0.190596
     35 H_0y          1.9903   -1.9328   16.0524 hb      1  lig       0.228026
     36 H_0z          5.1821    1.9636   13.3436 hd      1  lig       0.186925
     37 H_10          6.7861    0.9459   15.2758 he      1  lig       0.230876
     38 H_11          6.2270   -0.7893   17.3529 hf      1  lig       0.168115
     39 H_12          4.5880    2.3439   11.2255 hg      1  lig       0.133905
     40 H_13          3.8575    3.8116    9.3742 hh      1  lig       0.165594
     41 H_14          1.4893    5.0309    8.2959 hi      1  lig       0.335667
     42 H_15         -0.8811    5.2047    8.8100 hj      1  lig       0.203782
     43 H_16         -1.3687    3.8093   11.1106 hk      1  lig       0.174364
     44 H_17          0.6011    2.2181   12.8040 hl      1  lig       0.119033
     45 H_18         -0.1076   -0.0335   13.6255 hm      1  lig      -0.039115
     46 H_19         -3.0510    1.0731   11.7700 hq      1  lig       0.110229
     47 H_1a         -1.5106    0.2345   11.6499 hr      1  lig       0.110229
     48 H_1b         -1.7825    1.4496   12.9275 ht      1  lig       0.110229
@<TRIPOS>BOND
     1     1     2    1
     2     1    30    1
     3     1    31    1
     4     1    32    1
     5     2     3    1
     6     3     4    2
     7     3    27    1
     8     4     5    1
     9     4    33    1
    10     5     6    2
    11     5    34    1
    12     6     7    1
    13     6    26    1
    14     7     8    1
    15     7    35    1
    16     8     9    2
    17     8    16    1
    18     9    10    1
    19    10    11    2
    20    10    17    1
    21    11    12    1
    22    11    36    1
    23    12    13    1
    24    12    16    1
    25    13    14    2
    26    13    37    1
    27    14    15    1
    28    14    38    1
    29    15    16    2
    30    17    18    2
    31    17    25    1
    32    18    19    1
    33    18    39    1
    34    19    20    2
    35    19    40    1
    36    20    21    1
    37    20    24    1
    38    21    22    1
    39    21    41    1
    40    22    23    2
    41    22    42    1
    42    23    24    1
    43    23    43    1
    44    24    25    2
    45    25    44    1
    46    26    27    2
    47    26    45    1
    48    27    28    1
    49    28    29    1
    50    29    46    1
    51    29    47    1
    52    29    48    1
