@<TRIPOS>MOLECULE
lig
  63   67 0 0 0
SMALL
NO_CHARGES


@<TRIPOS>ATOM
      1 C_00         -4.2555   -3.1029   13.5707 c4      1  lig       0.016554
      2 O_01         -3.8740   -2.3535   14.7166 o0      1  lig      -0.369541
      3 C_02         -2.5261   -2.1057   14.8053 c5      1  lig       0.176192
      4 C_03         -1.7497   -2.8673   15.6804 c6      1  lig      -0.128764
      5 C_04         -0.3863   -2.6106   15.8150 c7      1  lig      -0.325303
      6 C_05          0.2220   -1.5829   15.0890 c8      1  lig       0.001867
      7 N_06          1.5930   -1.3491   15.3060 n0      1  lig      -0.108285
      8 C_07          2.5452   -0.4689   14.7536 c9      1  lig       0.060981
      9 N_08          2.2178    0.3551   13.7190 ng      1  lig      -0.162099
     10 C_09          3.1227    1.2406   13.2181 cb      1  lig       0.014939
     11 C_0a          4.4207    1.3039   13.7175 ci      1  lig      -0.240573
     12 N_0b          4.7482    0.4921   14.7654 nr      1  lig       0.157270
     13 C_0c          5.8898    0.3836   15.5035 cj      1  lig      -0.381524
     14 C_0d          5.5715   -0.5089   16.5177 ck      1  lig       0.033361
     15 N_0e          4.3818   -1.0543   16.3920 nw      1  lig      -0.536470
     16 C_0f          3.8330   -0.4170   15.3252 cm      1  lig       0.399077
     17 C_0g          2.6564    2.1560   12.1340 cn      1  lig      -0.010919
     18 C_0h          3.5566    2.6280   11.1666 co      1  lig      -0.074293
     19 C_0i          3.1294    3.4499   10.1277 cq      1  lig      -0.217904
     20 C_0j          1.7879    3.8078   10.0318 cr      1  lig      -0.083703
     21 C_0k          0.8660    3.3707   10.9895 cs      1  lig      -0.051040
     22 C_0l          1.3140    2.5576   12.0419 ct      1  lig      -0.143624
     23 C_0m         -0.5783    3.7648   10.8956 cw      1  lig       0.468708
     24 O_0n         -1.2695    3.6885    9.8840 o1      1  lig      -0.539657
     25 N_0o         -1.0448    4.2194   12.0590 nA      1  lig      -0.217861
     26 C_0p         -2.4077    4.6825   12.3031 cA      1  lig       0.033825
     27 C_0q         -2.6783    5.5030   13.3918 cB      1  lig      -0.260490
     28 C_0r         -3.9757    5.9439   13.6242 cC      1  lig      -0.112456
     29 C_0s         -5.0025    5.5643   12.7679 cD      1  lig       0.067070
     30 C_0t         -6.4027    6.0402   13.0187 cE      1  lig      -0.050110
     31 C_0u         -6.6249    7.3398   12.3033 cF      1  lig       0.819376
     32 O_0v         -7.5065    7.4520   11.4386 o2      1  lig      -0.798507
     33 O_0w         -5.8982    8.2982   12.6048 o3      1  lig      -0.798027
     34 C_0x         -4.7319    4.7439   11.6792 cG      1  lig      -0.243414
     35 C_0y         -3.4345    4.3030   11.4468 cH      1  lig      -0.076877
     36 C_0z         -0.5664   -0.8256   14.2115 cI      1  lig      -0.025654
     37 C_10         -1.9389   -1.0760   14.0580 cJ      1  lig       0.099270
     38 O_11         -2.6991   -0.3052   13.2021 o4      1  lig      -0.203406
     39 C_12         -2.0020    0.6746   12.5251 cK      1  lig      -0.060840
     40 H_13         -3.7528   -4.0708   13.5508 h0      1  lig       0.058812
     41 H_14         -4.0179   -2.5675   12.6505 h6      1  lig       0.058812
     42 H_15         -5.3306   -3.2808   13.5889 h7      1  lig       0.058812
     43 H_16         -2.2100   -3.6528   16.2607 h8      1  lig       0.149015
     44 H_17          0.1911   -3.2101   16.5029 h9      1  lig       0.189239
     45 H_18          2.0246   -1.8858   16.0475 hb      1  lig       0.206347
     46 H_19          5.1701    2.0030   13.3719 hd      1  lig       0.187317
     47 H_1a          6.7656    0.9739   15.2897 he      1  lig       0.230190
     48 H_1b          6.2089   -0.8330   17.3301 hf      1  lig       0.163233
     49 H_1c          4.5934    2.3309   11.2002 hg      1  lig       0.116340
     50 H_1d          3.8342    3.7939    9.3845 hh      1  lig       0.152780
     51 H_1e          1.4564    4.4350    9.2166 hi      1  lig       0.151077
     52 H_1f          0.6053    2.2130   12.7811 hj      1  lig       0.187008
     53 H_1g         -0.5125    4.2989   12.9136 hk      1  lig       0.205520
     54 H_1h         -1.8789    5.7984   14.0585 hl      1  lig       0.141326
     55 H_1i         -4.1864    6.5826   14.4718 hm      1  lig       0.162889
     56 H_1j         -6.5512    6.1845   14.0889 hq      1  lig      -0.008066
     57 H_1k         -7.1104    5.2973   12.6507 hr      1  lig      -0.008066
     58 H_1l         -5.5313    4.4485   11.0125 ht      1  lig       0.140088
     59 H_1m         -3.2239    3.6643   10.5991 hu      1  lig       0.121849
     60 H_1n         -0.1547   -0.0168   13.6337 hv      1  lig      -0.049383
     61 H_1o         -2.6851    1.2257   11.8787 hy      1  lig       0.085904
     62 H_1p         -1.2218    0.2131   11.9198 hz      1  lig       0.085904
     63 H_1q         -1.5485    1.3591   13.2420 hA      1  lig       0.085904
@<TRIPOS>BOND
     1     1     2    1
     2     1    40    1
     3     1    41    1
     4     1    42    1
     5     2     3    1
     6     3     4    2
     7     3    37    1
     8     4     5    1
     9     4    43    1
    10     5     6    2
    11     5    44    1
    12     6     7    1
    13     6    36    1
    14     7     8    1
    15     7    45    1
    16     8     9    2
    17     8    16    1
    18     9    10    1
    19    10    11    2
    20    10    17    1
    21    11    12    1
    22    11    46    1
    23    12    13    1
    24    12    16    1
    25    13    14    2
    26    13    47    1
    27    14    15    1
    28    14    48    1
    29    15    16    2
    30    17    18    2
    31    17    22    1
    32    18    19    1
    33    18    49    1
    34    19    20    2
    35    19    50    1
    36    20    21    1
    37    20    51    1
    38    21    22    2
    39    21    23    1
    40    22    52    1
    41    23    24    2
    42    23    25    1
    43    25    26    1
    44    25    53    1
    45    26    27    2
    46    26    35    1
    47    27    28    1
    48    27    54    1
    49    28    29    2
    50    28    55    1
    51    29    30    1
    52    29    34    1
    53    30    31    1
    54    30    56    1
    55    30    57    1
    56    31    32    2
    57    31    33    1
    58    34    35    2
    59    34    58    1
    60    35    59    1
    61    36    37    2
    62    36    60    1
    63    37    38    1
    64    38    39    1
    65    39    61    1
    66    39    62    1
    67    39    63    1
