@<TRIPOS>MOLECULE
lig
  58   63 0 0 0
SMALL
NO_CHARGES


@<TRIPOS>ATOM
      1 C_00         -6.8350   -5.5126   14.3646 c4      1  lig      -0.288962
      2 C_01         -6.2469   -4.1256   14.5196 c5      1  lig       0.408748
      3 O_02         -7.2986   -3.1815   14.6326 o0      1  lig      -0.688165
      4 C_03         -5.3943   -4.0373   15.7957 c6      1  lig      -0.176694
      5 C_04         -4.6708   -2.7036   15.9246 c7      1  lig       0.013541
      6 N_05         -3.8604   -2.3511   14.7445 n0      1  lig      -0.307497
      7 C_06         -4.6320   -2.3959   13.4920 c8      1  lig      -0.052411
      8 C_07         -5.3661   -3.7377   13.3163 c9      1  lig      -0.057017
      9 C_08         -2.5090   -2.1078   14.8185 cb      1  lig       0.139773
     10 C_09         -1.9132   -1.0937   14.0521 ci      1  lig      -0.075910
     11 C_0a         -0.5452   -0.8202   14.1949 cj      1  lig      -0.157773
     12 C_0b          0.2267   -1.5891   15.0857 ck      1  lig       0.029749
     13 N_0c          1.6093   -1.3706   15.3172 ng      1  lig      -0.192159
     14 C_0d          2.5356   -0.4465   14.7610 cm      1  lig       0.094113
     15 N_0e          2.1744    0.3801   13.7331 nr      1  lig      -0.177185
     16 C_0f          3.1091    1.2393   13.2182 cn      1  lig       0.028336
     17 C_0g          4.4162    1.2819   13.6993 co      1  lig      -0.242041
     18 N_0h          4.7443    0.4889   14.7568 nw      1  lig       0.166788
     19 C_0i          5.8980    0.3793   15.4854 cq      1  lig      -0.376216
     20 C_0j          5.5914   -0.5292   16.5255 cr      1  lig       0.022167
     21 N_0k          4.3788   -1.0451   16.3697 nA      1  lig      -0.533673
     22 C_0l          3.8374   -0.3956   15.3255 cs      1  lig       0.389614
     23 C_0m          2.6339    2.1607   12.1207 ct      1  lig       0.011183
     24 C_0n          3.5443    2.6413   11.1620 cw      1  lig      -0.125781
     25 C_0o          3.1470    3.4630   10.1086 cA      1  lig      -0.262745
     26 C_0p          1.8016    3.8175   10.0163 cB      1  lig       0.057499
     27 C_0q          0.9929    4.5961    9.1183 cC      1  lig       0.064144
     28 N_0r         -0.2479    4.6060    9.5144 nB      1  lig      -0.444215
     29 N_0s         -0.3355    3.8922   10.6289 nC      1  lig      -0.096864
     30 C_0t          0.8848    3.3596   10.9956 cD      1  lig       0.071798
     31 C_0u          1.2708    2.5377   12.0624 cE      1  lig      -0.146489
     32 C_0v         -0.3834   -2.6137   15.8106 cF      1  lig      -0.156012
     33 C_0w         -1.7318   -2.8604   15.6854 cG      1  lig      -0.252516
     34 H_0x         -6.0467   -6.2631   14.3371 h0      1  lig       0.067715
     35 H_0y         -7.4067   -5.5754   13.4421 h6      1  lig       0.067715
     36 H_0z         -7.4975   -5.7395   15.1969 h7      1  lig       0.067715
     37 H_10         -7.8476   -3.4517   15.3749 h8      1  lig       0.421695
     38 H_11         -6.0063   -4.2224   16.6815 h9      1  lig       0.052775
     39 H_12         -4.6544   -4.8417   15.8115 hb      1  lig       0.052775
     40 H_13         -4.0494   -2.7060   16.8283 hd      1  lig       0.062798
     41 H_14         -5.3818   -1.8934   16.0953 he      1  lig       0.062798
     42 H_15         -3.9484   -2.2562   12.6532 hf      1  lig       0.078516
     43 H_16         -5.3571   -1.5966   13.4338 hg      1  lig       0.078516
     44 H_17         -5.9794   -3.7294   12.4113 hh      1  lig       0.045927
     45 H_18         -4.6376   -4.5315   13.1300 hi      1  lig       0.045927
     46 H_19         -2.5174   -0.4949   13.3813 hj      1  lig       0.101656
     47 H_1a         -0.1094   -0.0194   13.6338 hk      1  lig       0.098675
     48 H_1b          2.0065   -1.9728   16.0216 hl      1  lig       0.230688
     49 H_1c          5.1781    1.9583   13.3366 hm      1  lig       0.188569
     50 H_1d          6.7839    0.9561   15.2754 hq      1  lig       0.232626
     51 H_1e          6.2312   -0.8046   17.3482 hr      1  lig       0.172092
     52 H_1f          4.5843    2.3478   11.2246 ht      1  lig       0.123288
     53 H_1g          3.8596    3.8053    9.3796 hu      1  lig       0.172669
     54 H_1h          1.3020    5.1188    8.2316 hv      1  lig       0.140495
     55 H_1i         -1.2247    3.7893   11.0947 hy      1  lig       0.319570
     56 H_1j          0.5687    2.2070   12.8051 hz      1  lig       0.106376
     57 H_1k          0.2004   -3.2162   16.4903 hA      1  lig       0.154698
     58 H_1l         -2.1848   -3.6574   16.2613 hB      1  lig       0.166598
@<TRIPOS>BOND
     1     1     2    1
     2     1    34    1
     3     1    35    1
     4     1    36    1
     5     2     3    1
     6     2     4    1
     7     2     8    1
     8     3    37    1
     9     4     5    1
    10     4    38    1
    11     4    39    1
    12     5     6    1
    13     5    40    1
    14     5    41    1
    15     6     7    1
    16     6     9    1
    17     7     8    1
    18     7    42    1
    19     7    43    1
    20     8    44    1
    21     8    45    1
    22     9    10    2
    23     9    33    1
    24    10    11    1
    25    10    46    1
    26    11    12    2
    27    11    47    1
    28    12    13    1
    29    12    32    1
    30    13    14    1
    31    13    48    1
    32    14    15    2
    33    14    22    1
    34    15    16    1
    35    16    17    2
    36    16    23    1
    37    17    18    1
    38    17    49    1
    39    18    19    1
    40    18    22    1
    41    19    20    2
    42    19    50    1
    43    20    21    1
    44    20    51    1
    45    21    22    2
    46    23    24    2
    47    23    31    1
    48    24    25    1
    49    24    52    1
    50    25    26    2
    51    25    53    1
    52    26    27    1
    53    26    30    1
    54    27    28    2
    55    27    54    1
    56    28    29    1
    57    29    30    1
    58    29    55    1
    59    30    31    2
    60    31    56    1
    61    32    33    2
    62    32    57    1
    63    33    58    1
