@<TRIPOS>MOLECULE
lig
  68   71 0 0 0
SMALL
NO_CHARGES


@<TRIPOS>ATOM
      1 C_00         11.4892    0.6176   -0.8877 c4      1  lig      -0.220785
      2 H_01         11.1942    0.8680   -1.9063 h0      1  lig       0.083313
      3 H_02         10.5933    0.5903   -0.2674 h6      1  lig       0.083313
      4 H_03         12.1399    1.4122   -0.5240 h7      1  lig       0.083313
      5 C_04         12.1875   -0.7362   -0.8555 c5      1  lig       0.670617
      6 O_05         11.8224   -1.6379   -1.6098 o0      1  lig      -0.605727
      7 N_06         13.1926   -0.8607    0.0231 n0      1  lig      -0.609133
      8 H_07         13.4739   -0.0222    0.5228 h8      1  lig       0.326318
      9 C_08         14.0613   -2.0280    0.1837 c6      1  lig       0.056865
     10 H_09         13.7760   -2.7927   -0.5410 h9      1  lig       0.156314
     11 C_0a         13.8545   -2.6665    1.5794 c7      1  lig       0.002335
     12 H_0b         14.1349   -1.9631    2.3680 hb      1  lig       0.102077
     13 C_0c         15.5208   -1.6510   -0.1688 c8      1  lig      -0.014556
     14 H_0d         15.9569   -1.0432    0.6244 hd      1  lig       0.067697
     15 H_0e         16.1304   -2.5544   -0.2205 he      1  lig       0.067697
     16 C_0f         12.3945   -3.1239    1.7774 c9      1  lig      -0.056641
     17 H_0g         11.7108   -2.2747    1.8136 hf      1  lig       0.126522
     18 H_0h         12.0916   -3.7962    0.9754 hg      1  lig       0.126522
     19 C_0i         15.6210   -0.9232   -1.5045 cb      1  lig      -0.125826
     20 O_0j         14.6542   -3.8280    1.6788 o1      1  lig      -0.626684
     21 H_0k         15.5764   -3.5676    1.9034 hh      1  lig       0.444429
     22 N_0l         12.2072   -3.8175    3.0711 ng      1  lig      -0.034250
     23 H_0m         13.0195   -4.4127    3.2071 hi      1  lig       0.229169
     24 C_0n         15.9610    0.4457   -1.5582 ci      1  lig      -0.148111
     25 H_0o         16.2049    0.9883   -0.6569 hj      1  lig       0.156339
     26 H_0p         12.2213   -3.1170    3.8209 hk      1  lig       0.229169
     27 C_0q         10.9871   -4.6566    3.2202 cj      1  lig       0.006711
     28 C_0r         15.9372    1.1326   -2.7893 ck      1  lig       0.155825
     29 F_0s         16.2294    2.4541   -2.8314 f0      1  lig      -0.154620
     30 C_0t         11.0070   -5.2333    4.6525 cm      1  lig      -0.087535
     31 H_0u         11.8917   -5.8353    4.8287 hl      1  lig       0.047955
     32 H_0v         11.1139   -4.4090    5.3529 hm      1  lig       0.047955
     33 C_0w         11.0458   -5.7976    2.1763 cn      1  lig       0.030730
     34 C_0x         15.5828    0.4543   -3.9721 co      1  lig      -0.150909
     35 H_0y         15.5606    0.9805   -4.9134 hq      1  lig       0.180208
     36 C_0z          9.7402   -6.0432    4.9863 cq      1  lig      -0.005320
     37 C_10         12.0602   -6.7741    2.2828 cr      1  lig      -0.038140
     38 C_11         15.2479   -0.9116   -3.9228 cs      1  lig       0.169036
     39 F_12         14.8574   -1.5568   -5.0469 f1      1  lig      -0.159325
     40 H_13          9.6477   -6.8893    4.3030 hr      1  lig       0.030624
     41 H_14          9.8251   -6.4811    5.9804 ht      1  lig       0.030624
     42 H_15         12.7550   -6.7473    3.0963 hu      1  lig       0.097387
     43 C_16          8.4931   -5.1535    4.8971 ct      1  lig      -0.032218
     44 H_17          7.5895   -5.7354    5.0864 hv      1  lig       0.031885
     45 H_18          8.5251   -4.3914    5.6757 hy      1  lig       0.031885
     46 C_19         12.2326   -7.7862    1.3234 cw      1  lig      -0.009191
     47 C_1a         15.2861   -1.5996   -2.6964 cA      1  lig      -0.095309
     48 H_1b         15.0174   -2.6423   -2.6747 hz      1  lig       0.135983
     49 C_1c          8.4017   -4.4775    3.5234 cB      1  lig      -0.016873
     50 H_1d          8.1420   -5.2314    2.7813 hA      1  lig       0.030042
     51 H_1e          7.5727   -3.7682    3.5213 hB      1  lig       0.030042
     52 C_1f         11.3311   -7.8743    0.2475 cC      1  lig      -0.138708
     53 H_1g         11.4342   -8.6586   -0.4890 hC      1  lig       0.153947
     54 N_1h         13.2958   -8.7067    1.4545 nr      1  lig       0.275478
     55 C_1i          9.7155   -3.7556    3.1463 cD      1  lig      -0.025197
     56 H_1j          9.8405   -2.9148    3.8335 hD      1  lig       0.034830
     57 H_1k          9.6185   -3.2931    2.1697 hE      1  lig       0.034830
     58 C_1l         10.2901   -6.9324    0.1343 cE      1  lig      -0.199417
     59 H_1m          9.5934   -7.0032   -0.6888 hF      1  lig       0.181075
     60 N_1n         13.5439   -9.3071    2.6347 nw      1  lig      -0.433764
     61 C_1o         10.1635   -5.8908    1.0741 cF      1  lig      -0.090521
     62 H_1p          9.3688   -5.1804    0.9350 hG      1  lig       0.133572
     63 C_1q         14.5844  -10.0841    2.4287 cG      1  lig       0.072600
     64 H_1r         15.0145  -10.6902    3.2160 hH      1  lig       0.161677
     65 C_1s         15.0379  -10.0170    1.1111 cH      1  lig      -0.274936
     66 H_1t         15.8752  -10.5451    0.6758 hI      1  lig       0.193549
     67 C_1u         14.1887   -9.1157    0.4945 cI      1  lig      -0.160513
     68 H_1v         14.1484   -8.7176   -0.5078 hJ      1  lig       0.203750
@<TRIPOS>BOND
     1     1     5    1
     2     1     2    1
     3     1     3    1
     4     1     4    1
     5     5     7    1
     6     5     6    2
     7     7     9    1
     8     7     8    1
     9     9    11    1
    10     9    13    1
    11     9    10    1
    12    11    16    1
    13    11    20    1
    14    11    12    1
    15    13    19    1
    16    13    14    1
    17    13    15    1
    18    16    22    1
    19    16    17    1
    20    16    18    1
    21    19    24    2
    22    19    47    1
    23    20    21    1
    24    22    27    1
    25    22    23    1
    26    22    26    1
    27    24    28    1
    28    24    25    1
    29    27    30    1
    30    27    55    1
    31    27    33    1
    32    28    34    2
    33    28    29    1
    34    30    36    1
    35    30    31    1
    36    30    32    1
    37    33    37    2
    38    33    61    1
    39    34    38    1
    40    34    35    1
    41    36    43    1
    42    36    40    1
    43    36    41    1
    44    37    46    1
    45    37    42    1
    46    38    47    2
    47    38    39    1
    48    43    49    1
    49    43    44    1
    50    43    45    1
    51    46    52    2
    52    46    54    1
    53    47    48    1
    54    49    55    1
    55    49    50    1
    56    49    51    1
    57    52    58    1
    58    52    53    1
    59    54    60    1
    60    54    67    1
    61    55    56    1
    62    55    57    1
    63    58    61    2
    64    58    59    1
    65    60    63    2
    66    61    62    1
    67    63    65    1
    68    63    64    1
    69    65    67    2
    70    65    66    1
    71    67    68    1
