@<TRIPOS>MOLECULE
lig
  67   70 0 0 0
SMALL
NO_CHARGES


@<TRIPOS>ATOM
      1 C_00         11.4892    0.6176   -0.8877 c4      1  lig      -0.216474
      2 H_01         11.1948    0.8682   -1.9064 h0      1  lig       0.082773
      3 H_02         10.5930    0.5902   -0.2678 h6      1  lig       0.082773
      4 H_03         12.1397    1.4121   -0.5234 h7      1  lig       0.082773
      5 C_04         12.1875   -0.7362   -0.8555 c5      1  lig       0.665414
      6 O_05         11.8224   -1.6379   -1.6098 o0      1  lig      -0.603257
      7 N_06         13.1926   -0.8607    0.0231 n0      1  lig      -0.602920
      8 H_07         13.4736   -0.0222    0.5231 h8      1  lig       0.326007
      9 C_08         14.0613   -2.0280    0.1837 c6      1  lig       0.051394
     10 H_09         13.7762   -2.7928   -0.5410 h9      1  lig       0.158460
     11 C_0a         13.8545   -2.6665    1.5794 c7      1  lig      -0.015236
     12 H_0b         14.1348   -1.9631    2.3679 hb      1  lig       0.108683
     13 C_0c         15.5208   -1.6510   -0.1688 c8      1  lig      -0.020271
     14 H_0d         15.9568   -1.0431    0.6243 hd      1  lig       0.069516
     15 H_0e         16.1305   -2.5542   -0.2205 he      1  lig       0.069516
     16 C_0f         12.3945   -3.1239    1.7774 c9      1  lig      -0.056619
     17 H_0g         11.7112   -2.2744    1.8136 hf      1  lig       0.127352
     18 H_0h         12.0913   -3.7956    0.9750 hg      1  lig       0.127352
     19 C_0i         15.6210   -0.9232   -1.5045 cb      1  lig      -0.120919
     20 O_0j         14.6542   -3.8280    1.6788 o1      1  lig      -0.628482
     21 H_0k         15.5766   -3.5675    1.9023 hh      1  lig       0.447415
     22 N_0l         12.2072   -3.8175    3.0711 ng      1  lig      -0.039777
     23 H_0m         13.0210   -4.4099    3.2092 hi      1  lig       0.234220
     24 C_0n         15.9610    0.4457   -1.5582 ci      1  lig      -0.151441
     25 H_0o         16.2049    0.9883   -0.6569 hj      1  lig       0.157099
     26 H_0p         12.2195   -3.1160    3.8202 hk      1  lig       0.234220
     27 C_0q         10.9871   -4.6566    3.2202 cj      1  lig       0.017657
     28 C_0r         15.9372    1.1326   -2.7893 ck      1  lig       0.153511
     29 F_0s         16.2294    2.4541   -2.8314 f0      1  lig      -0.153435
     30 C_0t         11.0070   -5.2333    4.6525 cm      1  lig      -0.075757
     31 H_0u         11.8923   -5.8333    4.8320 hl      1  lig       0.043588
     32 H_0v         11.1119   -4.4082    5.3523 hm      1  lig       0.043588
     33 C_0w         11.0458   -5.7976    2.1763 cn      1  lig       0.049314
     34 C_0x         15.5828    0.4543   -3.9721 co      1  lig      -0.147530
     35 H_0y         15.5606    0.9806   -4.9134 hq      1  lig       0.179754
     36 C_0z          9.7402   -6.0432    4.9863 cq      1  lig      -0.009811
     37 C_10         12.0602   -6.7741    2.2828 cr      1  lig      -0.062259
     38 C_11         15.2479   -0.9116   -3.9228 cs      1  lig       0.166836
     39 F_12         14.8574   -1.5568   -5.0469 f1      1  lig      -0.157963
     40 H_13          9.6470   -6.8895    4.3035 hr      1  lig       0.033218
     41 H_14          9.8247   -6.4807    5.9806 ht      1  lig       0.033218
     42 H_15         12.7482   -6.7416    3.1015 hu      1  lig       0.075135
     43 C_16          8.4931   -5.1535    4.8971 ct      1  lig      -0.037431
     44 H_17          7.5893   -5.7352    5.0865 hv      1  lig       0.033050
     45 H_18          8.5250   -4.3913    5.6757 hy      1  lig       0.033050
     46 C_19         12.2326   -7.7862    1.3234 cw      1  lig      -0.073571
     47 C_1a         15.2861   -1.5996   -2.6964 cA      1  lig      -0.094938
     48 H_1b         15.0176   -2.6423   -2.6749 hz      1  lig       0.136775
     49 C_1c          8.4017   -4.4775    3.5234 cB      1  lig      -0.012800
     50 H_1d          8.1415   -5.2312    2.7813 hA      1  lig       0.029471
     51 H_1e          7.5728   -3.7681    3.5216 hB      1  lig       0.029471
     52 C_1f         11.3311   -7.8743    0.2475 cC      1  lig      -0.042432
     53 H_1g         11.4297   -8.6612   -0.4872 hC      1  lig       0.128495
     54 N_1h         13.2649   -8.7523    1.4827 nr      1  lig       0.484445
     55 C_1i          9.7155   -3.7556    3.1463 cD      1  lig      -0.026475
     56 H_1j          9.8401   -2.9147    3.8335 hD      1  lig       0.032019
     57 H_1k          9.6182   -3.2927    2.1699 hE      1  lig       0.032019
     58 C_1l         10.2901   -6.9324    0.1343 cE      1  lig      -0.214365
     59 H_1m          9.5930   -7.0041   -0.6884 hF      1  lig       0.185329
     60 N_1n         13.7974   -9.4374    0.4535 nw      1  lig      -0.373568
     61 C_1o         10.1635   -5.8908    1.0741 cF      1  lig      -0.097852
     62 H_1p          9.3684   -5.1807    0.9349 hG      1  lig       0.138761
     63 C_1q         14.6810  -10.2135    1.0310 cG      1  lig      -0.008993
     64 H_1r         15.3177  -10.8965    0.4848 hH      1  lig       0.179422
     65 C_1s         14.6499  -10.0092    2.4076 cH      1  lig      -0.031131
     66 H_1t         15.2516  -10.5099    3.1560 hI      1  lig       0.177520
     67 N_1u         13.7567   -9.0935    2.6913 nA      1  lig      -0.364906
@<TRIPOS>BOND
     1     1     5    1
     2     1     2    1
     3     1     3    1
     4     1     4    1
     5     5     7    1
     6     5     6    2
     7     7     9    1
     8     7     8    1
     9     9    11    1
    10     9    13    1
    11     9    10    1
    12    11    16    1
    13    11    20    1
    14    11    12    1
    15    13    19    1
    16    13    14    1
    17    13    15    1
    18    16    22    1
    19    16    17    1
    20    16    18    1
    21    19    24    2
    22    19    47    1
    23    20    21    1
    24    22    27    1
    25    22    23    1
    26    22    26    1
    27    24    28    1
    28    24    25    1
    29    27    30    1
    30    27    55    1
    31    27    33    1
    32    28    34    2
    33    28    29    1
    34    30    36    1
    35    30    31    1
    36    30    32    1
    37    33    37    2
    38    33    61    1
    39    34    38    1
    40    34    35    1
    41    36    43    1
    42    36    40    1
    43    36    41    1
    44    37    46    1
    45    37    42    1
    46    38    47    2
    47    38    39    1
    48    43    49    1
    49    43    44    1
    50    43    45    1
    51    46    52    2
    52    46    54    1
    53    47    48    1
    54    49    55    1
    55    49    50    1
    56    49    51    1
    57    52    58    1
    58    52    53    1
    59    54    60    1
    60    54    67    1
    61    55    56    1
    62    55    57    1
    63    58    61    2
    64    58    59    1
    65    60    63    2
    66    61    62    1
    67    63    65    1
    68    63    64    1
    69    65    67    2
    70    65    66    1
