@<TRIPOS>MOLECULE
lig
  68   71 0 0 0
SMALL
NO_CHARGES


@<TRIPOS>ATOM
      1 C_00         11.4892    0.6176   -0.8877 c4      1  lig      -0.216314
      2 H_01         11.1947    0.8683   -1.9064 h0      1  lig       0.082388
      3 H_02         10.5930    0.5902   -0.2678 h6      1  lig       0.082388
      4 H_03         12.1397    1.4121   -0.5234 h7      1  lig       0.082388
      5 C_04         12.1875   -0.7362   -0.8555 c5      1  lig       0.670600
      6 O_05         11.8224   -1.6379   -1.6098 o0      1  lig      -0.603952
      7 N_06         13.1926   -0.8607    0.0231 n0      1  lig      -0.609859
      8 H_07         13.4737   -0.0224    0.5232 h8      1  lig       0.328100
      9 C_08         14.0613   -2.0280    0.1837 c6      1  lig       0.047626
     10 H_09         13.7759   -2.7929   -0.5409 h9      1  lig       0.160634
     11 C_0a         13.8545   -2.6665    1.5794 c7      1  lig      -0.005092
     12 H_0b         14.1348   -1.9632    2.3679 hb      1  lig       0.107804
     13 C_0c         15.5208   -1.6510   -0.1688 c8      1  lig      -0.016047
     14 H_0d         15.9569   -1.0432    0.6244 hd      1  lig       0.067138
     15 H_0e         16.1303   -2.5543   -0.2207 he      1  lig       0.067138
     16 C_0f         12.3945   -3.1239    1.7774 c9      1  lig      -0.050339
     17 H_0g         11.7103   -2.2751    1.8131 hf      1  lig       0.125130
     18 H_0h         12.0919   -3.7973    0.9760 hg      1  lig       0.125130
     19 C_0i         15.6210   -0.9232   -1.5045 cb      1  lig      -0.121517
     20 O_0j         14.6542   -3.8280    1.6788 o1      1  lig      -0.642116
     21 H_0k         15.5767   -3.5675    1.9018 hh      1  lig       0.451486
     22 N_0l         12.2072   -3.8175    3.0711 ng      1  lig      -0.057144
     23 H_0m         13.0189   -4.4135    3.2050 hi      1  lig       0.236905
     24 C_0n         15.9610    0.4457   -1.5582 ci      1  lig      -0.152186
     25 H_0o         16.2049    0.9883   -0.6569 hj      1  lig       0.157206
     26 H_0p         12.2217   -3.1174    3.8211 hk      1  lig       0.236905
     27 C_0q         10.9871   -4.6566    3.2202 cj      1  lig       0.004706
     28 C_0r         15.9372    1.1326   -2.7893 ck      1  lig       0.156233
     29 F_0s         16.2294    2.4541   -2.8314 f0      1  lig      -0.154574
     30 C_0t         11.0070   -5.2333    4.6525 cm      1  lig      -0.086911
     31 H_0u         11.8925   -5.8325    4.8322 hl      1  lig       0.039808
     32 H_0v         11.1114   -4.4078    5.3519 hm      1  lig       0.039808
     33 C_0w         11.0458   -5.7976    2.1763 cn      1  lig       0.034408
     34 C_0x         15.5828    0.4543   -3.9721 co      1  lig      -0.149243
     35 H_0y         15.5606    0.9806   -4.9134 hq      1  lig       0.180167
     36 C_0z          9.7402   -6.0432    4.9863 cq      1  lig      -0.000828
     37 C_10         12.0602   -6.7741    2.2828 cr      1  lig      -0.109449
     38 C_11         15.2479   -0.9116   -3.9228 cs      1  lig       0.166676
     39 F_12         14.8574   -1.5568   -5.0469 f1      1  lig      -0.158455
     40 H_13          9.6470   -6.8890    4.3029 hr      1  lig       0.027544
     41 H_14          9.8245   -6.4809    5.9805 ht      1  lig       0.027544
     42 H_15         12.7464   -6.7267    3.0982 hu      1  lig       0.137210
     43 C_16          8.4931   -5.1535    4.8971 ct      1  lig      -0.016322
     44 H_17          7.5895   -5.7354    5.0862 hv      1  lig       0.028556
     45 H_18          8.5250   -4.3913    5.6756 hy      1  lig       0.028556
     46 C_19         12.2326   -7.7862    1.3234 cw      1  lig      -0.002816
     47 C_1a         15.2861   -1.5996   -2.6964 cA      1  lig      -0.091555
     48 H_1b         15.0174   -2.6423   -2.6747 hz      1  lig       0.133754
     49 C_1c          8.4017   -4.4775    3.5234 cB      1  lig      -0.015541
     50 H_1d          8.1426   -5.2314    2.7810 hA      1  lig       0.027056
     51 H_1e          7.5727   -3.7683    3.5210 hB      1  lig       0.027056
     52 C_1f         11.3311   -7.8743    0.2475 cC      1  lig      -0.071234
     53 H_1g         11.4169   -8.6511   -0.4963 hC      1  lig       0.143029
     54 C_1h         13.3525   -8.7905    1.4450 cD      1  lig       0.054006
     55 C_1i          9.7155   -3.7556    3.1463 cE      1  lig      -0.027842
     56 H_1j          9.8403   -2.9143    3.8328 hD      1  lig       0.037538
     57 H_1k          9.6184   -3.2945    2.1691 hE      1  lig       0.037538
     58 C_1l         10.2901   -6.9324    0.1343 cF      1  lig      -0.252498
     59 H_1m          9.5940   -7.0026   -0.6893 hF      1  lig       0.184520
     60 C_1n         13.6938   -9.7406    0.4768 cG      1  lig      -0.264065
     61 C_1o         10.1635   -5.8908    1.0741 cH      1  lig      -0.052822
     62 H_1p          9.3694   -5.1798    0.9346 hG      1  lig       0.131239
     63 S_1q         15.0321  -10.7495    0.9073 s0      1  lig       0.065783
     64 C_1r         15.1577   -9.9413    2.4214 cI      1  lig      -0.270457
     65 C_1s         14.2290   -8.9181    2.5411 cJ      1  lig      -0.157759
     66 H_1t         13.2330   -9.8945   -0.4869 hH      1  lig       0.224750
     67 H_1u         15.9086  -10.2488    3.1354 hI      1  lig       0.247443
     68 H_1v         14.2022   -8.2830    3.4082 hJ      1  lig       0.143043
@<TRIPOS>BOND
     1     1     5    1
     2     1     2    1
     3     1     3    1
     4     1     4    1
     5     5     7    1
     6     5     6    2
     7     7     9    1
     8     7     8    1
     9     9    11    1
    10     9    13    1
    11     9    10    1
    12    11    16    1
    13    11    20    1
    14    11    12    1
    15    13    19    1
    16    13    14    1
    17    13    15    1
    18    16    22    1
    19    16    17    1
    20    16    18    1
    21    19    24    2
    22    19    47    1
    23    20    21    1
    24    22    27    1
    25    22    23    1
    26    22    26    1
    27    24    28    1
    28    24    25    1
    29    27    30    1
    30    27    55    1
    31    27    33    1
    32    28    34    2
    33    28    29    1
    34    30    36    1
    35    30    31    1
    36    30    32    1
    37    33    37    2
    38    33    61    1
    39    34    38    1
    40    34    35    1
    41    36    43    1
    42    36    40    1
    43    36    41    1
    44    37    46    1
    45    37    42    1
    46    38    47    2
    47    38    39    1
    48    43    49    1
    49    43    44    1
    50    43    45    1
    51    46    52    2
    52    46    54    1
    53    47    48    1
    54    49    55    1
    55    49    50    1
    56    49    51    1
    57    52    58    1
    58    52    53    1
    59    54    60    2
    60    54    65    1
    61    55    56    1
    62    55    57    1
    63    58    61    2
    64    58    59    1
    65    60    63    1
    66    60    66    1
    67    61    62    1
    68    63    64    1
    69    64    65    2
    70    64    67    1
    71    65    68    1
