@<TRIPOS>MOLECULE
lig
  68   71 0 0 0
SMALL
NO_CHARGES


@<TRIPOS>ATOM
      1 C_00         11.4892    0.6176   -0.8877 c4      1  lig      -0.217096
      2 H_01         11.1947    0.8682   -1.9064 h0      1  lig       0.082751
      3 H_02         10.5930    0.5902   -0.2678 h6      1  lig       0.082751
      4 H_03         12.1397    1.4121   -0.5235 h7      1  lig       0.082751
      5 C_04         12.1875   -0.7362   -0.8555 c5      1  lig       0.669575
      6 O_05         11.8224   -1.6379   -1.6098 o0      1  lig      -0.604127
      7 N_06         13.1926   -0.8607    0.0231 n0      1  lig      -0.608852
      8 H_07         13.4738   -0.0224    0.5232 h8      1  lig       0.327516
      9 C_08         14.0613   -2.0280    0.1837 c6      1  lig       0.048819
     10 H_09         13.7759   -2.7929   -0.5409 h9      1  lig       0.160920
     11 C_0a         13.8545   -2.6665    1.5794 c7      1  lig      -0.004398
     12 H_0b         14.1348   -1.9632    2.3680 hb      1  lig       0.107981
     13 C_0c         15.5208   -1.6510   -0.1688 c8      1  lig      -0.018344
     14 H_0d         15.9569   -1.0432    0.6244 hd      1  lig       0.067687
     15 H_0e         16.1303   -2.5543   -0.2206 he      1  lig       0.067687
     16 C_0f         12.3945   -3.1239    1.7774 c9      1  lig      -0.051133
     17 H_0g         11.7103   -2.2752    1.8131 hf      1  lig       0.125292
     18 H_0h         12.0919   -3.7973    0.9761 hg      1  lig       0.125292
     19 C_0i         15.6210   -0.9232   -1.5045 cb      1  lig      -0.120112
     20 O_0j         14.6542   -3.8280    1.6788 o1      1  lig      -0.646166
     21 H_0k         15.5765   -3.5675    1.9023 hh      1  lig       0.453933
     22 N_0l         12.2072   -3.8175    3.0711 ng      1  lig      -0.058527
     23 H_0m         13.0185   -4.4144    3.2046 hi      1  lig       0.236557
     24 C_0n         15.9610    0.4457   -1.5582 ci      1  lig      -0.151952
     25 H_0o         16.2049    0.9883   -0.6569 hj      1  lig       0.157586
     26 H_0p         12.2221   -3.1177    3.8214 hk      1  lig       0.236557
     27 C_0q         10.9871   -4.6566    3.2202 cj      1  lig       0.003343
     28 C_0r         15.9372    1.1326   -2.7893 ck      1  lig       0.154838
     29 F_0s         16.2294    2.4541   -2.8314 f0      1  lig      -0.153912
     30 C_0t         11.0070   -5.2333    4.6525 cm      1  lig      -0.092152
     31 H_0u         11.8924   -5.8333    4.8303 hl      1  lig       0.041343
     32 H_0v         11.1124   -4.4083    5.3522 hm      1  lig       0.041343
     33 C_0w         11.0458   -5.7976    2.1763 cn      1  lig       0.036995
     34 C_0x         15.5828    0.4543   -3.9721 co      1  lig      -0.148407
     35 H_0y         15.5606    0.9806   -4.9134 hq      1  lig       0.180005
     36 C_0z          9.7402   -6.0432    4.9863 cq      1  lig      -0.004197
     37 C_10         12.0602   -6.7741    2.2828 cr      1  lig      -0.081632
     38 C_11         15.2479   -0.9116   -3.9228 cs      1  lig       0.167022
     39 F_12         14.8574   -1.5568   -5.0469 f1      1  lig      -0.158158
     40 H_13          9.6471   -6.8890    4.3028 hr      1  lig       0.028943
     41 H_14          9.8246   -6.4810    5.9804 ht      1  lig       0.028943
     42 H_15         12.7505   -6.7406    3.0973 hu      1  lig       0.138335
     43 C_16          8.4931   -5.1535    4.8971 ct      1  lig      -0.016543
     44 H_17          7.5895   -5.7354    5.0862 hv      1  lig       0.029144
     45 H_18          8.5250   -4.3913    5.6756 hy      1  lig       0.029144
     46 C_19         12.2326   -7.7862    1.3234 cw      1  lig      -0.034297
     47 C_1a         15.2861   -1.5996   -2.6964 cA      1  lig      -0.094214
     48 H_1b         15.0174   -2.6423   -2.6747 hz      1  lig       0.135350
     49 C_1c          8.4017   -4.4775    3.5234 cB      1  lig      -0.015842
     50 H_1d          8.1426   -5.2314    2.7810 hA      1  lig       0.027153
     51 H_1e          7.5727   -3.7683    3.5211 hB      1  lig       0.027153
     52 C_1f         11.3311   -7.8743    0.2475 cC      1  lig      -0.076291
     53 H_1g         11.4195   -8.6541   -0.4937 hC      1  lig       0.145812
     54 C_1h         13.3287   -8.8043    1.4371 cD      1  lig       0.013455
     55 C_1i          9.7155   -3.7556    3.1463 cE      1  lig      -0.029448
     56 H_1j          9.8403   -2.9143    3.8329 hD      1  lig       0.038688
     57 H_1k          9.6184   -3.2943    2.1691 hE      1  lig       0.038688
     58 C_1l         10.2901   -6.9324    0.1343 cF      1  lig      -0.240940
     59 H_1m          9.5936   -7.0029   -0.6889 hF      1  lig       0.181864
     60 C_1n         13.7110   -9.7544    0.4880 cG      1  lig      -0.015986
     61 C_1o         10.1635   -5.8908    1.0741 cH      1  lig      -0.059562
     62 H_1p          9.3693   -5.1799    0.9347 hG      1  lig       0.131360
     63 O_1q         14.7246  -10.5364    0.9395 o2      1  lig      -0.194251
     64 C_1r         15.0324  -10.0863    2.1779 cI      1  lig      -0.002473
     65 C_1s         14.2126   -9.0211    2.5050 cJ      1  lig      -0.283898
     66 H_1t         13.3590   -9.9827   -0.5089 hH      1  lig       0.170825
     67 H_1u         15.8352  -10.5966    2.6923 hI      1  lig       0.186641
     68 H_1v         14.2576   -8.4586    3.4234 hJ      1  lig       0.172868
@<TRIPOS>BOND
     1     1     5    1
     2     1     2    1
     3     1     3    1
     4     1     4    1
     5     5     7    1
     6     5     6    2
     7     7     9    1
     8     7     8    1
     9     9    11    1
    10     9    13    1
    11     9    10    1
    12    11    16    1
    13    11    20    1
    14    11    12    1
    15    13    19    1
    16    13    14    1
    17    13    15    1
    18    16    22    1
    19    16    17    1
    20    16    18    1
    21    19    24    2
    22    19    47    1
    23    20    21    1
    24    22    27    1
    25    22    23    1
    26    22    26    1
    27    24    28    1
    28    24    25    1
    29    27    30    1
    30    27    55    1
    31    27    33    1
    32    28    34    2
    33    28    29    1
    34    30    36    1
    35    30    31    1
    36    30    32    1
    37    33    37    2
    38    33    61    1
    39    34    38    1
    40    34    35    1
    41    36    43    1
    42    36    40    1
    43    36    41    1
    44    37    46    1
    45    37    42    1
    46    38    47    2
    47    38    39    1
    48    43    49    1
    49    43    44    1
    50    43    45    1
    51    46    52    2
    52    46    54    1
    53    47    48    1
    54    49    55    1
    55    49    50    1
    56    49    51    1
    57    52    58    1
    58    52    53    1
    59    54    60    2
    60    54    65    1
    61    55    56    1
    62    55    57    1
    63    58    61    2
    64    58    59    1
    65    60    63    1
    66    60    66    1
    67    61    62    1
    68    63    64    1
    69    64    65    2
    70    64    67    1
    71    65    68    1
