@<TRIPOS>MOLECULE
lig
  68   71 0 0 0
SMALL
NO_CHARGES


@<TRIPOS>ATOM
      1 C_00         11.4892    0.6176   -0.8877 c4      1  lig      -0.217634
      2 H_01         11.1945    0.8681   -1.9064 h0      1  lig       0.083050
      3 H_02         10.5931    0.5902   -0.2676 h6      1  lig       0.083050
      4 H_03         12.1398    1.4122   -0.5237 h7      1  lig       0.083050
      5 C_04         12.1875   -0.7362   -0.8555 c5      1  lig       0.663624
      6 O_05         11.8224   -1.6379   -1.6098 o0      1  lig      -0.601364
      7 N_06         13.1926   -0.8607    0.0231 n0      1  lig      -0.602154
      8 H_07         13.4739   -0.0222    0.5229 h8      1  lig       0.325947
      9 C_08         14.0613   -2.0280    0.1837 c6      1  lig       0.048932
     10 H_09         13.7760   -2.7928   -0.5410 h9      1  lig       0.160733
     11 C_0a         13.8545   -2.6665    1.5794 c7      1  lig      -0.016196
     12 H_0b         14.1348   -1.9631    2.3679 hb      1  lig       0.108303
     13 C_0c         15.5208   -1.6510   -0.1688 c8      1  lig      -0.021043
     14 H_0d         15.9569   -1.0432    0.6243 hd      1  lig       0.069832
     15 H_0e         16.1304   -2.5543   -0.2206 he      1  lig       0.069832
     16 C_0f         12.3945   -3.1239    1.7774 c9      1  lig      -0.057610
     17 H_0g         11.7107   -2.2748    1.8134 hf      1  lig       0.127876
     18 H_0h         12.0916   -3.7965    0.9756 hg      1  lig       0.127876
     19 C_0i         15.6210   -0.9232   -1.5045 cb      1  lig      -0.122693
     20 O_0j         14.6542   -3.8280    1.6788 o1      1  lig      -0.622086
     21 H_0k         15.5767   -3.5674    1.9017 hh      1  lig       0.444430
     22 N_0l         12.2072   -3.8175    3.0711 ng      1  lig      -0.048698
     23 H_0m         13.0192   -4.4132    3.2062 hi      1  lig       0.235874
     24 C_0n         15.9610    0.4457   -1.5582 ci      1  lig      -0.150536
     25 H_0o         16.2049    0.9883   -0.6569 hj      1  lig       0.156921
     26 H_0p         12.2213   -3.1171    3.8209 hk      1  lig       0.235874
     27 C_0q         10.9871   -4.6566    3.2202 cj      1  lig       0.010515
     28 C_0r         15.9372    1.1326   -2.7893 ck      1  lig       0.154531
     29 F_0s         16.2294    2.4541   -2.8314 f0      1  lig      -0.153949
     30 C_0t         11.0070   -5.2333    4.6525 cm      1  lig      -0.086635
     31 H_0u         11.8921   -5.8344    4.8290 hl      1  lig       0.045016
     32 H_0v         11.1132   -4.4087    5.3527 hm      1  lig       0.045016
     33 C_0w         11.0458   -5.7976    2.1763 cn      1  lig       0.025970
     34 C_0x         15.5828    0.4543   -3.9721 co      1  lig      -0.149441
     35 H_0y         15.5606    0.9806   -4.9134 hq      1  lig       0.180111
     36 C_0z          9.7402   -6.0432    4.9863 cq      1  lig      -0.005967
     37 C_10         12.0602   -6.7741    2.2828 cr      1  lig      -0.024914
     38 C_11         15.2479   -0.9116   -3.9228 cs      1  lig       0.167580
     39 F_12         14.8574   -1.5568   -5.0469 f1      1  lig      -0.158628
     40 H_13          9.6470   -6.8892    4.3031 hr      1  lig       0.031709
     41 H_14          9.8247   -6.4809    5.9805 ht      1  lig       0.031709
     42 H_15         12.7557   -6.7480    3.0949 hu      1  lig       0.071442
     43 C_16          8.4931   -5.1535    4.8971 ct      1  lig      -0.030192
     44 H_17          7.5894   -5.7353    5.0863 hv      1  lig       0.031001
     45 H_18          8.5249   -4.3913    5.6757 hy      1  lig       0.031001
     46 C_19         12.2326   -7.7862    1.3234 cw      1  lig      -0.015139
     47 C_1a         15.2861   -1.5996   -2.6964 cA      1  lig      -0.093071
     48 H_1b         15.0175   -2.6423   -2.6748 hz      1  lig       0.135071
     49 C_1c          8.4017   -4.4775    3.5234 cB      1  lig      -0.016239
     50 H_1d          8.1420   -5.2312    2.7811 hA      1  lig       0.029907
     51 H_1e          7.5727   -3.7682    3.5213 hB      1  lig       0.029907
     52 C_1f         11.3311   -7.8743    0.2475 cC      1  lig      -0.128631
     53 H_1g         11.4355   -8.6578   -0.4894 hC      1  lig       0.155559
     54 C_1h         13.3424   -8.7746    1.4447 cD      1  lig       0.123827
     55 C_1i          9.7155   -3.7556    3.1463 cE      1  lig      -0.029721
     56 H_1j          9.8403   -2.9145    3.8332 hD      1  lig       0.035802
     57 H_1k          9.6182   -3.2936    2.1695 hE      1  lig       0.035802
     58 C_1l         10.2901   -6.9324    0.1343 cF      1  lig      -0.195552
     59 H_1m          9.5942   -7.0027   -0.6895 hF      1  lig       0.174585
     60 O_1n         13.7132   -9.1678    2.6950 o2      1  lig      -0.149077
     61 C_1o         10.1635   -5.8908    1.0741 cG      1  lig      -0.089693
     62 H_1p          9.3691   -5.1800    0.9346 hG      1  lig       0.135965
     63 C_1q         14.7269  -10.0637    2.5552 cH      1  lig      -0.093078
     64 C_1r         15.0163  -10.2521    1.2175 cI      1  lig      -0.209334
     65 C_1s         14.1294   -9.4395    0.5128 cJ      1  lig      -0.187887
     66 H_1t         15.1444  -10.4835    3.4590 hH      1  lig       0.198187
     67 H_1u         15.7783  -10.8987    0.8049 hI      1  lig       0.191877
     68 H_1v         14.0737   -9.3324   -0.5605 hJ      1  lig       0.179868
@<TRIPOS>BOND
     1     1     5    1
     2     1     2    1
     3     1     3    1
     4     1     4    1
     5     5     7    1
     6     5     6    2
     7     7     9    1
     8     7     8    1
     9     9    11    1
    10     9    13    1
    11     9    10    1
    12    11    16    1
    13    11    20    1
    14    11    12    1
    15    13    19    1
    16    13    14    1
    17    13    15    1
    18    16    22    1
    19    16    17    1
    20    16    18    1
    21    19    24    2
    22    19    47    1
    23    20    21    1
    24    22    27    1
    25    22    23    1
    26    22    26    1
    27    24    28    1
    28    24    25    1
    29    27    30    1
    30    27    55    1
    31    27    33    1
    32    28    34    2
    33    28    29    1
    34    30    36    1
    35    30    31    1
    36    30    32    1
    37    33    37    2
    38    33    61    1
    39    34    38    1
    40    34    35    1
    41    36    43    1
    42    36    40    1
    43    36    41    1
    44    37    46    1
    45    37    42    1
    46    38    47    2
    47    38    39    1
    48    43    49    1
    49    43    44    1
    50    43    45    1
    51    46    52    2
    52    46    54    1
    53    47    48    1
    54    49    55    1
    55    49    50    1
    56    49    51    1
    57    52    58    1
    58    52    53    1
    59    54    60    1
    60    54    65    2
    61    55    56    1
    62    55    57    1
    63    58    61    2
    64    58    59    1
    65    60    63    1
    66    61    62    1
    67    63    64    2
    68    63    66    1
    69    64    65    1
    70    64    67    1
    71    65    68    1
