@<TRIPOS>MOLECULE
lig
  68   71 0 0 0
SMALL
NO_CHARGES


@<TRIPOS>ATOM
      1 C_00         11.4892    0.6176   -0.8877 c4      1  lig      -0.215051
      2 H_01         11.1947    0.8683   -1.9064 h0      1  lig       0.082158
      3 H_02         10.5930    0.5902   -0.2678 h6      1  lig       0.082158
      4 H_03         12.1397    1.4121   -0.5234 h7      1  lig       0.082158
      5 C_04         12.1875   -0.7362   -0.8555 c5      1  lig       0.669346
      6 O_05         11.8224   -1.6379   -1.6098 o0      1  lig      -0.602732
      7 N_06         13.1926   -0.8607    0.0231 n0      1  lig      -0.610936
      8 H_07         13.4737   -0.0224    0.5232 h8      1  lig       0.328554
      9 C_08         14.0613   -2.0280    0.1837 c6      1  lig       0.049239
     10 H_09         13.7759   -2.7929   -0.5409 h9      1  lig       0.161755
     11 C_0a         13.8545   -2.6665    1.5794 c7      1  lig      -0.004146
     12 H_0b         14.1347   -1.9631    2.3679 hb      1  lig       0.108089
     13 C_0c         15.5208   -1.6510   -0.1688 c8      1  lig      -0.019789
     14 H_0d         15.9569   -1.0432    0.6244 hd      1  lig       0.069313
     15 H_0e         16.1303   -2.5544   -0.2207 he      1  lig       0.069313
     16 C_0f         12.3945   -3.1239    1.7774 c9      1  lig      -0.053964
     17 H_0g         11.7104   -2.2751    1.8132 hf      1  lig       0.124112
     18 H_0h         12.0918   -3.7971    0.9759 hg      1  lig       0.124112
     19 C_0i         15.6210   -0.9232   -1.5045 cb      1  lig      -0.121808
     20 O_0j         14.6542   -3.8280    1.6788 o1      1  lig      -0.638790
     21 H_0k         15.5767   -3.5676    1.9018 hh      1  lig       0.448217
     22 N_0l         12.2072   -3.8175    3.0711 ng      1  lig      -0.056285
     23 H_0m         13.0187   -4.4140    3.2052 hi      1  lig       0.237828
     24 C_0n         15.9610    0.4457   -1.5582 ci      1  lig      -0.152206
     25 H_0o         16.2049    0.9883   -0.6569 hj      1  lig       0.157105
     26 H_0p         12.2218   -3.1174    3.8211 hk      1  lig       0.237828
     27 C_0q         10.9871   -4.6566    3.2202 cj      1  lig       0.006542
     28 C_0r         15.9372    1.1326   -2.7893 ck      1  lig       0.155509
     29 F_0s         16.2294    2.4541   -2.8314 f0      1  lig      -0.154132
     30 C_0t         11.0070   -5.2333    4.6525 cm      1  lig      -0.078225
     31 H_0u         11.8923   -5.8334    4.8310 hl      1  lig       0.040090
     32 H_0v         11.1122   -4.4082    5.3522 hm      1  lig       0.040090
     33 C_0w         11.0458   -5.7976    2.1763 cn      1  lig       0.025828
     34 C_0x         15.5828    0.4543   -3.9721 co      1  lig      -0.148841
     35 H_0y         15.5605    0.9806   -4.9134 hq      1  lig       0.179854
     36 C_0z          9.7402   -6.0432    4.9863 cq      1  lig      -0.004276
     37 C_10         12.0602   -6.7741    2.2828 cr      1  lig      -0.043543
     38 C_11         15.2479   -0.9116   -3.9228 cs      1  lig       0.167377
     39 F_12         14.8574   -1.5568   -5.0469 f1      1  lig      -0.158639
     40 H_13          9.6471   -6.8891    4.3030 hr      1  lig       0.028940
     41 H_14          9.8246   -6.4809    5.9805 ht      1  lig       0.028940
     42 H_15         12.7505   -6.7296    3.0962 hu      1  lig       0.105406
     43 C_16          8.4931   -5.1535    4.8971 ct      1  lig      -0.019424
     44 H_17          7.5894   -5.7354    5.0862 hv      1  lig       0.029415
     45 H_18          8.5249   -4.3913    5.6756 hy      1  lig       0.029415
     46 C_19         12.2326   -7.7862    1.3234 cw      1  lig      -0.003056
     47 C_1a         15.2861   -1.5996   -2.6964 cA      1  lig      -0.093088
     48 H_1b         15.0174   -2.6423   -2.6747 hz      1  lig       0.134347
     49 C_1c          8.4017   -4.4775    3.5234 cB      1  lig      -0.017773
     50 H_1d          8.1424   -5.2313    2.7810 hA      1  lig       0.027932
     51 H_1e          7.5727   -3.7682    3.5212 hB      1  lig       0.027932
     52 C_1f         11.3311   -7.8743    0.2475 cC      1  lig      -0.063378
     53 H_1g         11.4219   -8.6522   -0.4954 hC      1  lig       0.148760
     54 C_1h         13.3416   -8.7958    1.3982 cD      1  lig      -0.078914
     55 C_1i          9.7155   -3.7556    3.1463 cE      1  lig      -0.032424
     56 H_1j          9.8402   -2.9143    3.8329 hD      1  lig       0.038226
     57 H_1k          9.6183   -3.2941    2.1692 hE      1  lig       0.038226
     58 C_1l         10.2901   -6.9324    0.1343 cF      1  lig      -0.257385
     59 H_1m          9.5941   -7.0027   -0.6894 hF      1  lig       0.185010
     60 S_1n         14.2860   -8.9715    2.8478 s0      1  lig      -0.012816
     61 C_1o         10.1635   -5.8908    1.0741 cG      1  lig      -0.056098
     62 H_1p          9.3693   -5.1799    0.9346 hG      1  lig       0.135396
     63 C_1q         15.2894  -10.1745    2.1258 cH      1  lig      -0.195216
     64 C_1r         14.8961  -10.4581    0.8329 cI      1  lig      -0.232754
     65 C_1s         13.7983   -9.6949    0.4296 cJ      1  lig      -0.036825
     66 H_1t         16.1037  -10.6094    2.6853 hH      1  lig       0.232276
     67 H_1u         15.3874  -11.1807    0.1994 hI      1  lig       0.189872
     68 H_1v         13.3676   -9.7889   -0.5548 hJ      1  lig       0.135846
@<TRIPOS>BOND
     1     1     5    1
     2     1     2    1
     3     1     3    1
     4     1     4    1
     5     5     7    1
     6     5     6    2
     7     7     9    1
     8     7     8    1
     9     9    11    1
    10     9    13    1
    11     9    10    1
    12    11    16    1
    13    11    20    1
    14    11    12    1
    15    13    19    1
    16    13    14    1
    17    13    15    1
    18    16    22    1
    19    16    17    1
    20    16    18    1
    21    19    24    2
    22    19    47    1
    23    20    21    1
    24    22    27    1
    25    22    23    1
    26    22    26    1
    27    24    28    1
    28    24    25    1
    29    27    30    1
    30    27    55    1
    31    27    33    1
    32    28    34    2
    33    28    29    1
    34    30    36    1
    35    30    31    1
    36    30    32    1
    37    33    37    2
    38    33    61    1
    39    34    38    1
    40    34    35    1
    41    36    43    1
    42    36    40    1
    43    36    41    1
    44    37    46    1
    45    37    42    1
    46    38    47    2
    47    38    39    1
    48    43    49    1
    49    43    44    1
    50    43    45    1
    51    46    52    2
    52    46    54    1
    53    47    48    1
    54    49    55    1
    55    49    50    1
    56    49    51    1
    57    52    58    1
    58    52    53    1
    59    54    60    1
    60    54    65    2
    61    55    56    1
    62    55    57    1
    63    58    61    2
    64    58    59    1
    65    60    63    1
    66    61    62    1
    67    63    64    2
    68    63    66    1
    69    64    65    1
    70    64    67    1
    71    65    68    1
