@<TRIPOS>MOLECULE
lig
  67   70 0 0 0
SMALL
NO_CHARGES


@<TRIPOS>ATOM
      1 C_00         11.4892    0.6176   -0.8877 c4      1  lig      -0.223277
      2 H_01         11.1944    0.8681   -1.9063 h0      1  lig       0.084051
      3 H_02         10.5932    0.5903   -0.2675 h6      1  lig       0.084051
      4 H_03         12.1398    1.4122   -0.5238 h7      1  lig       0.084051
      5 C_04         12.1875   -0.7362   -0.8555 c5      1  lig       0.666925
      6 O_05         11.8224   -1.6379   -1.6098 o0      1  lig      -0.602395
      7 N_06         13.1926   -0.8607    0.0231 n0      1  lig      -0.602599
      8 H_07         13.4740   -0.0222    0.5227 h8      1  lig       0.325969
      9 C_08         14.0613   -2.0280    0.1837 c6      1  lig       0.047890
     10 H_09         13.7760   -2.7927   -0.5411 h9      1  lig       0.158255
     11 C_0a         13.8545   -2.6665    1.5794 c7      1  lig      -0.012981
     12 H_0b         14.1348   -1.9630    2.3679 hb      1  lig       0.106014
     13 C_0c         15.5208   -1.6510   -0.1688 c8      1  lig      -0.014390
     14 H_0d         15.9569   -1.0432    0.6243 hd      1  lig       0.067243
     15 H_0e         16.1304   -2.5543   -0.2206 he      1  lig       0.067243
     16 C_0f         12.3945   -3.1239    1.7774 c9      1  lig      -0.063156
     17 H_0g         11.7108   -2.2748    1.8135 hf      1  lig       0.131934
     18 H_0h         12.0914   -3.7964    0.9756 hg      1  lig       0.131934
     19 C_0i         15.6210   -0.9232   -1.5045 cb      1  lig      -0.124206
     20 O_0j         14.6542   -3.8280    1.6788 o1      1  lig      -0.608391
     21 H_0k         15.5765   -3.5671    1.9023 hh      1  lig       0.438182
     22 N_0l         12.2072   -3.8175    3.0711 ng      1  lig      -0.040857
     23 H_0m         13.0191   -4.4132    3.2065 hi      1  lig       0.228203
     24 C_0n         15.9610    0.4457   -1.5582 ci      1  lig      -0.150039
     25 H_0o         16.2049    0.9882   -0.6569 hj      1  lig       0.156438
     26 H_0p         12.2213   -3.1171    3.8209 hk      1  lig       0.228203
     27 C_0q         10.9871   -4.6566    3.2202 cj      1  lig       0.013727
     28 C_0r         15.9372    1.1326   -2.7893 ck      1  lig       0.155775
     29 F_0s         16.2294    2.4541   -2.8314 f0      1  lig      -0.154831
     30 C_0t         11.0070   -5.2333    4.6525 cm      1  lig      -0.072399
     31 H_0u         11.8919   -5.8348    4.8288 hl      1  lig       0.038122
     32 H_0v         11.1135   -4.4088    5.3528 hm      1  lig       0.038122
     33 C_0w         11.0458   -5.7976    2.1763 cn      1  lig       0.025469
     34 C_0x         15.5828    0.4543   -3.9721 co      1  lig      -0.149952
     35 H_0y         15.5606    0.9805   -4.9134 hq      1  lig       0.179916
     36 C_0z          9.7402   -6.0432    4.9863 cq      1  lig       0.003016
     37 C_10         12.0602   -6.7741    2.2828 cr      1  lig       0.015550
     38 C_11         15.2479   -0.9116   -3.9228 cs      1  lig       0.168467
     39 F_12         14.8574   -1.5568   -5.0469 f1      1  lig      -0.159536
     40 H_13          9.6471   -6.8892    4.3030 hr      1  lig       0.027091
     41 H_14          9.8247   -6.4810    5.9804 ht      1  lig       0.027091
     42 H_15         12.7561   -6.7452    3.0946 hu      1  lig       0.077949
     43 C_16          8.4931   -5.1535    4.8971 ct      1  lig      -0.023866
     44 H_17          7.5895   -5.7354    5.0862 hv      1  lig       0.027250
     45 H_18          8.5249   -4.3914    5.6757 hy      1  lig       0.027250
     46 C_19         12.2326   -7.7862    1.3234 cw      1  lig      -0.088498
     47 C_1a         15.2861   -1.5996   -2.6964 cA      1  lig      -0.094191
     48 H_1b         15.0175   -2.6423   -2.6748 hz      1  lig       0.135854
     49 C_1c          8.4017   -4.4775    3.5234 cB      1  lig      -0.016851
     50 H_1d          8.1422   -5.2313    2.7811 hA      1  lig       0.029694
     51 H_1e          7.5727   -3.7682    3.5212 hB      1  lig       0.029694
     52 C_1f         11.3311   -7.8743    0.2475 cC      1  lig      -0.154949
     53 H_1g         11.4376   -8.6565   -0.4904 hC      1  lig       0.138336
     54 C_1h         13.3681   -8.7486    1.4584 cD      1  lig       0.352437
     55 C_1i          9.7155   -3.7556    3.1463 cE      1  lig      -0.018857
     56 H_1j          9.8403   -2.9145    3.8331 hD      1  lig       0.032328
     57 H_1k          9.6183   -3.2937    2.1694 hE      1  lig       0.032328
     58 C_1l         10.2901   -6.9324    0.1343 cF      1  lig      -0.135700
     59 H_1m          9.5943   -7.0023   -0.6897 hF      1  lig       0.163999
     60 C_1n         14.2492   -9.1145    0.4408 cG      1  lig      -0.357074
     61 C_1o         10.1635   -5.8908    1.0741 cH      1  lig      -0.136852
     62 H_1p          9.3691   -5.1800    0.9346 hG      1  lig       0.141949
     63 S_1q         15.4386  -10.2318    1.0331 s0      1  lig       0.049402
     64 C_1r         14.6694  -10.1155    2.5723 cI      1  lig       0.079287
     65 N_1s         13.6276   -9.3214    2.6245 nr      1  lig      -0.462126
     66 H_1t         14.2688   -8.7711   -0.5821 hH      1  lig       0.265375
     67 H_1u         15.0521  -10.6727    3.4140 hI      1  lig       0.185909
@<TRIPOS>BOND
     1     1     5    1
     2     1     2    1
     3     1     3    1
     4     1     4    1
     5     5     7    1
     6     5     6    2
     7     7     9    1
     8     7     8    1
     9     9    11    1
    10     9    13    1
    11     9    10    1
    12    11    16    1
    13    11    20    1
    14    11    12    1
    15    13    19    1
    16    13    14    1
    17    13    15    1
    18    16    22    1
    19    16    17    1
    20    16    18    1
    21    19    24    2
    22    19    47    1
    23    20    21    1
    24    22    27    1
    25    22    23    1
    26    22    26    1
    27    24    28    1
    28    24    25    1
    29    27    30    1
    30    27    55    1
    31    27    33    1
    32    28    34    2
    33    28    29    1
    34    30    36    1
    35    30    31    1
    36    30    32    1
    37    33    37    2
    38    33    61    1
    39    34    38    1
    40    34    35    1
    41    36    43    1
    42    36    40    1
    43    36    41    1
    44    37    46    1
    45    37    42    1
    46    38    47    2
    47    38    39    1
    48    43    49    1
    49    43    44    1
    50    43    45    1
    51    46    52    2
    52    46    54    1
    53    47    48    1
    54    49    55    1
    55    49    50    1
    56    49    51    1
    57    52    58    1
    58    52    53    1
    59    54    60    2
    60    54    65    1
    61    55    56    1
    62    55    57    1
    63    58    61    2
    64    58    59    1
    65    60    63    1
    66    60    66    1
    67    61    62    1
    68    63    64    1
    69    64    65    2
    70    64    67    1
