@<TRIPOS>MOLECULE
lig
  74   77 0 0 0
SMALL
NO_CHARGES


@<TRIPOS>ATOM
      1 C_00         11.4892    0.6176   -0.8877 c4      1  lig      -0.060293
      2 H_01         12.1665    1.4198   -0.5948 h0      1  lig       0.041555
      3 H_02         11.1283    0.8346   -1.8926 h6      1  lig       0.041555
      4 H_03         10.6370    0.6152   -0.2083 h7      1  lig       0.041555
      5 C_04         12.1875   -0.7362   -0.8555 c5      1  lig       0.592727
      6 O_05         11.8224   -1.6379   -1.6098 o0      1  lig      -0.579193
      7 N_06         13.1926   -0.8607    0.0231 n0      1  lig      -0.536050
      8 H_07         13.4831   -0.0224    0.5217 h8      1  lig       0.313660
      9 C_08         14.0613   -2.0280    0.1837 c6      1  lig       0.066017
     10 H_09         13.7784   -2.7981   -0.5401 h9      1  lig       0.190863
     11 C_0a         13.8545   -2.6665    1.5794 c7      1  lig      -0.025785
     12 H_0b         14.1348   -1.9622    2.3673 hb      1  lig       0.106603
     13 C_0c         15.5208   -1.6510   -0.1688 c8      1  lig      -0.052681
     14 H_0d         15.9561   -1.0431    0.6253 hd      1  lig       0.069723
     15 H_0e         16.1302   -2.5544   -0.2233 he      1  lig       0.069723
     16 C_0f         12.3940   -3.1236    1.7772 c9      1  lig      -0.036905
     17 H_0g         11.7078   -2.2776    1.8080 hf      1  lig       0.087293
     18 H_0h         12.0896   -3.7967    0.9757 hg      1  lig       0.087293
     19 C_0i         15.6210   -0.9232   -1.5045 cb      1  lig      -0.104864
     20 O_0j         14.6613   -3.8340    1.6787 o1      1  lig      -0.597627
     21 H_0k         15.5866   -3.5459    1.8369 hh      1  lig       0.438726
     22 N_0l         12.2073   -3.8174    3.0713 ng      1  lig      -0.021718
     23 H_0m         13.0158   -4.4162    3.2014 hi      1  lig       0.228352
     24 C_0n         15.9610    0.4457   -1.5582 ci      1  lig      -0.187184
     25 H_0o         16.2059    0.9873   -0.6566 hj      1  lig       0.162084
     26 H_0p         12.2314   -3.1162    3.8248 hk      1  lig       0.228352
     27 C_0q         10.9870   -4.6569    3.2201 cj      1  lig       0.008587
     28 C_0r         15.9372    1.1326   -2.7893 ck      1  lig       0.196962
     29 F_0s         16.2294    2.4541   -2.8314 f0      1  lig      -0.166921
     30 C_0t         11.0070   -5.2332    4.6525 cm      1  lig      -0.053121
     31 H_0u         11.9919   -5.5092    4.9434 hl      1  lig       0.028449
     32 H_0v         10.9847   -4.3464    5.2684 hm      1  lig       0.028449
     33 C_0w         11.0458   -5.7976    2.1763 cn      1  lig       0.000334
     34 C_0x         15.5828    0.4543   -3.9721 co      1  lig      -0.145758
     35 H_0y         15.5617    0.9800   -4.9140 hq      1  lig       0.174640
     36 C_0z          9.7403   -6.0431    4.9863 cq      1  lig      -0.005551
     37 C_10         12.0602   -6.7741    2.2827 cr      1  lig      -0.198151
     38 C_11         15.2479   -0.9116   -3.9228 cs      1  lig       0.129534
     39 F_12         14.8574   -1.5568   -5.0469 f1      1  lig      -0.134597
     40 H_13          9.6406   -6.8713    4.2844 hr      1  lig       0.032923
     41 H_14          9.8025   -6.5083    5.9651 ht      1  lig       0.032923
     42 H_15         12.7451   -6.7362    3.1046 hu      1  lig       0.160496
     43 C_16          8.4931   -5.1535    4.8971 ct      1  lig      -0.010650
     44 H_17          7.6005   -5.7567    5.0670 hv      1  lig       0.025872
     45 H_18          8.4691   -4.3944    5.6709 hy      1  lig       0.025872
     46 C_19         12.2210   -7.7971    1.3272 cw      1  lig      -0.030902
     47 C_1a         15.2861   -1.5996   -2.6964 cA      1  lig      -0.076811
     48 H_1b         15.0146   -2.6430   -2.6721 hz      1  lig       0.108971
     49 C_1c          8.4017   -4.4775    3.5234 cB      1  lig      -0.022245
     50 H_1d          8.1445   -5.2312    2.7804 hA      1  lig       0.028970
     51 H_1e          7.5736   -3.7671    3.5143 hB      1  lig       0.028970
     52 C_1f         11.3310   -7.8742    0.2476 cC      1  lig      -0.048649
     53 H_1g         11.3812   -8.7224   -0.4065 hC      1  lig       0.156049
     54 C_1h          9.7155   -3.7556    3.1463 cD      1  lig      -0.034246
     55 H_1i          9.8394   -2.9055    3.8221 hD      1  lig       0.038828
     56 H_1j          9.6206   -3.3059    2.1628 hE      1  lig       0.038828
     57 C_1k         10.2902   -6.9324    0.1344 cE      1  lig      -0.241861
     58 H_1l          9.5653   -7.0296   -0.6604 hF      1  lig       0.174733
     59 C_1m         10.1635   -5.8908    1.0741 cF      1  lig      -0.043253
     60 H_1n          9.3430   -5.2117    0.9652 hG      1  lig       0.126986
     61 C_1o         13.2940   -8.8536    1.5692 cG      1  lig       0.001142
     62 C_1p         14.1796   -9.2098    0.3741 cH      1  lig      -0.008685
     63 C_1q         14.7125  -10.6016    0.7128 cI      1  lig       0.021138
     64 C_1r         13.5070  -11.2938    1.3413 cJ      1  lig       0.000441
     65 C_1s         12.7773  -10.1969    2.1226 cK      1  lig      -0.016299
     66 H_1t         13.9796   -8.4458    2.3171 hH      1  lig       0.037620
     67 H_1u         14.9748   -8.4782    0.2226 hI      1  lig       0.009993
     68 H_1v         13.5979   -9.2566   -0.5479 hJ      1  lig       0.009993
     69 H_1w         15.0898  -11.1359   -0.1581 hK      1  lig      -0.003495
     70 H_1x         15.5277  -10.5298    1.4356 hL      1  lig      -0.003495
     71 H_1y         12.8561  -11.6589    0.5473 hM      1  lig       0.010391
     72 H_1z         13.7843  -12.1419    1.9684 hN      1  lig       0.010391
     73 H_20         13.0023  -10.2743    3.1881 hO      1  lig       0.016212
     74 H_21         11.6968  -10.3065    2.0140 hP      1  lig       0.016212
@<TRIPOS>BOND
     1     1     5    1
     2     1     2    1
     3     1     3    1
     4     1     4    1
     5     5     7    1
     6     5     6    2
     7     7     9    1
     8     7     8    1
     9     9    11    1
    10     9    13    1
    11     9    10    1
    12    11    16    1
    13    11    20    1
    14    11    12    1
    15    13    19    1
    16    13    14    1
    17    13    15    1
    18    16    22    1
    19    16    17    1
    20    16    18    1
    21    19    24    2
    22    19    47    1
    23    20    21    1
    24    22    27    1
    25    22    23    1
    26    22    26    1
    27    24    28    1
    28    24    25    1
    29    27    30    1
    30    27    54    1
    31    27    33    1
    32    28    34    2
    33    28    29    1
    34    30    36    1
    35    30    31    1
    36    30    32    1
    37    33    37    2
    38    33    59    1
    39    34    38    1
    40    34    35    1
    41    36    43    1
    42    36    40    1
    43    36    41    1
    44    37    46    1
    45    37    42    1
    46    38    47    2
    47    38    39    1
    48    43    49    1
    49    43    44    1
    50    43    45    1
    51    46    52    2
    52    46    61    1
    53    47    48    1
    54    49    54    1
    55    49    50    1
    56    49    51    1
    57    52    57    1
    58    52    53    1
    59    54    55    1
    60    54    56    1
    61    57    59    2
    62    57    58    1
    63    59    60    1
    64    61    62    1
    65    61    65    1
    66    61    66    1
    67    62    63    1
    68    62    67    1
    69    62    68    1
    70    63    64    1
    71    63    69    1
    72    63    70    1
    73    64    65    1
    74    64    71    1
    75    64    72    1
    76    65    73    1
    77    65    74    1
