@<TRIPOS>MOLECULE
lig
  70   73 0 0 0
SMALL
NO_CHARGES


@<TRIPOS>ATOM
      1 C_00         11.4892    0.6176   -0.8877 c4      1  lig      -0.208253
      2 H_01         11.1252    0.8330   -1.8918 h0      1  lig       0.081391
      3 H_02         10.6392    0.6163   -0.2056 h6      1  lig       0.081391
      4 H_03         12.1676    1.4201   -0.5981 h7      1  lig       0.081391
      5 C_04         12.1875   -0.7362   -0.8555 c5      1  lig       0.662164
      6 O_05         11.8224   -1.6379   -1.6098 o0      1  lig      -0.599806
      7 N_06         13.1926   -0.8607    0.0231 n0      1  lig      -0.599836
      8 H_07         13.4836   -0.0219    0.5207 h8      1  lig       0.324922
      9 C_08         14.0613   -2.0280    0.1837 c6      1  lig       0.048493
     10 H_09         13.7785   -2.7977   -0.5404 h9      1  lig       0.159344
     11 C_0a         13.8545   -2.6665    1.5794 c7      1  lig      -0.024210
     12 H_0b         14.1345   -1.9615    2.3671 hb      1  lig       0.112218
     13 C_0c         15.5208   -1.6510   -0.1688 c8      1  lig      -0.023168
     14 H_0d         15.9561   -1.0430    0.6252 hd      1  lig       0.068678
     15 H_0e         16.1304   -2.5543   -0.2233 he      1  lig       0.068678
     16 C_0f         12.3940   -3.1236    1.7772 c9      1  lig      -0.044031
     17 H_0g         11.7089   -2.2765    1.8083 hf      1  lig       0.121625
     18 H_0h         12.0886   -3.7940    0.9740 hg      1  lig       0.121625
     19 C_0i         15.6210   -0.9232   -1.5045 cb      1  lig      -0.120649
     20 O_0j         14.6613   -3.8340    1.6787 o1      1  lig      -0.633930
     21 H_0k         15.5867   -3.5448    1.8366 hh      1  lig       0.449541
     22 N_0l         12.2073   -3.8174    3.0713 ng      1  lig      -0.061987
     23 H_0m         13.0213   -4.4069    3.2065 hi      1  lig       0.236601
     24 C_0n         15.9610    0.4457   -1.5582 ci      1  lig      -0.152155
     25 H_0o         16.2059    0.9874   -0.6566 hj      1  lig       0.157798
     26 H_0p         12.2274   -3.1128    3.8226 hk      1  lig       0.236601
     27 C_0q         10.9870   -4.6569    3.2201 cj      1  lig       0.007629
     28 C_0r         15.9372    1.1326   -2.7893 ck      1  lig       0.153325
     29 F_0s         16.2294    2.4541   -2.8314 f0      1  lig      -0.152975
     30 C_0t         11.0070   -5.2332    4.6525 cm      1  lig      -0.090627
     31 H_0u         11.9910   -5.5065    4.9509 hl      1  lig       0.039978
     32 H_0v         10.9819   -4.3455    5.2672 hm      1  lig       0.039978
     33 C_0w         11.0458   -5.7976    2.1763 cn      1  lig       0.054893
     34 C_0x         15.5828    0.4543   -3.9721 co      1  lig      -0.147314
     35 H_0y         15.5617    0.9800   -4.9140 hq      1  lig       0.180331
     36 C_0z          9.7403   -6.0431    4.9863 cq      1  lig      -0.014110
     37 C_10         12.0602   -6.7741    2.2827 cr      1  lig      -0.103722
     38 C_11         15.2479   -0.9116   -3.9228 cs      1  lig       0.166999
     39 F_12         14.8574   -1.5568   -5.0469 f1      1  lig      -0.156842
     40 H_13          9.6389   -6.8716    4.2851 hr      1  lig       0.033162
     41 H_14          9.8018   -6.5081    5.9654 ht      1  lig       0.033162
     42 H_15         12.7387   -6.7279    3.1084 hu      1  lig       0.126890
     43 C_16          8.4931   -5.1535    4.8971 ct      1  lig      -0.019875
     44 H_17          7.6003   -5.7563    5.0673 hv      1  lig       0.031258
     45 H_18          8.4688   -4.3944    5.6709 hy      1  lig       0.031258
     46 C_19         12.2069   -7.8138    1.3419 cw      1  lig      -0.059730
     47 C_1a         15.2861   -1.5996   -2.6964 cA      1  lig      -0.092591
     48 H_1b         15.0146   -2.6429   -2.6723 hz      1  lig       0.135820
     49 C_1c          8.4017   -4.4775    3.5234 cB      1  lig      -0.012414
     50 H_1d          8.1433   -5.2309    2.7804 hA      1  lig       0.026607
     51 H_1e          7.5737   -3.7669    3.5147 hB      1  lig       0.026607
     52 C_1f         11.3311   -7.8742    0.2476 cC      1  lig      -0.083125
     53 H_1g         11.3655   -8.6995   -0.4319 hC      1  lig       0.185453
     54 C_1h          9.7155   -3.7556    3.1463 cD      1  lig      -0.035636
     55 H_1i          9.8389   -2.9053    3.8222 hD      1  lig       0.041639
     56 H_1j          9.6203   -3.3046    2.1634 hE      1  lig       0.041639
     57 C_1k         10.2902   -6.9324    0.1344 cE      1  lig      -0.228482
     58 H_1l          9.5690   -7.0254   -0.6644 hF      1  lig       0.181408
     59 C_1m         10.1635   -5.8908    1.0741 cF      1  lig      -0.055237
     60 H_1n          9.3432   -5.2112    0.9641 hG      1  lig       0.124353
     61 N_1o         13.1796   -8.8209    1.5434 nr      1  lig      -0.115438
     62 C_1p         14.2736   -8.7537    2.4892 cG      1  lig      -0.040447
     63 C_1q         15.2336   -9.7572    1.9085 cH      1  lig       0.094903
     64 O_1r         14.3102  -10.7144    1.4532 o2      1  lig      -0.398438
     65 C_1s         13.1615  -10.1391    1.0520 cI      1  lig       0.741119
     66 H_1t         13.9211   -9.0567    3.4749 hH      1  lig       0.064972
     67 H_1u         14.6845   -7.7515    2.5677 hI      1  lig       0.064972
     68 H_1v         15.7948   -9.3554    1.0621 hJ      1  lig       0.089445
     69 H_1w         15.9281  -10.1591    2.6465 hK      1  lig       0.089445
     70 O_1x         12.3168  -10.7673    0.4154 o3      1  lig      -0.544678
@<TRIPOS>BOND
     1     1     5    1
     2     1     2    1
     3     1     3    1
     4     1     4    1
     5     5     7    1
     6     5     6    2
     7     7     9    1
     8     7     8    1
     9     9    11    1
    10     9    13    1
    11     9    10    1
    12    11    16    1
    13    11    20    1
    14    11    12    1
    15    13    19    1
    16    13    14    1
    17    13    15    1
    18    16    22    1
    19    16    17    1
    20    16    18    1
    21    19    24    2
    22    19    47    1
    23    20    21    1
    24    22    27    1
    25    22    23    1
    26    22    26    1
    27    24    28    1
    28    24    25    1
    29    27    30    1
    30    27    54    1
    31    27    33    1
    32    28    34    2
    33    28    29    1
    34    30    36    1
    35    30    31    1
    36    30    32    1
    37    33    37    2
    38    33    59    1
    39    34    38    1
    40    34    35    1
    41    36    43    1
    42    36    40    1
    43    36    41    1
    44    37    46    1
    45    37    42    1
    46    38    47    2
    47    38    39    1
    48    43    49    1
    49    43    44    1
    50    43    45    1
    51    46    52    2
    52    46    61    1
    53    47    48    1
    54    49    54    1
    55    49    50    1
    56    49    51    1
    57    52    57    1
    58    52    53    1
    59    54    55    1
    60    54    56    1
    61    57    59    2
    62    57    58    1
    63    59    60    1
    64    61    62    1
    65    61    65    1
    66    62    63    1
    67    62    66    1
    68    62    67    1
    69    63    64    1
    70    63    68    1
    71    63    69    1
    72    64    65    1
    73    65    70    2
