@<TRIPOS>MOLECULE
lig
  71   74 0 0 0
SMALL
NO_CHARGES


@<TRIPOS>ATOM
      1 C_00         11.4892    0.6176   -0.8877 c4      1  lig      -0.224183
      2 H_01         10.6376    0.6155   -0.2076 h0      1  lig       0.084892
      3 H_02         12.1668    1.4199   -0.5957 h6      1  lig       0.084892
      4 H_03         11.1275    0.8342   -1.8924 h7      1  lig       0.084892
      5 C_04         12.1875   -0.7362   -0.8555 c5      1  lig       0.665343
      6 O_05         11.8224   -1.6379   -1.6098 o0      1  lig      -0.597444
      7 N_06         13.1926   -0.8607    0.0231 n0      1  lig      -0.594892
      8 H_07         13.4836   -0.0220    0.5209 h8      1  lig       0.316920
      9 C_08         14.0613   -2.0280    0.1837 c6      1  lig       0.070277
     10 H_09         13.7785   -2.7980   -0.5402 h9      1  lig       0.153420
     11 C_0a         13.8545   -2.6665    1.5794 c7      1  lig      -0.021290
     12 H_0b         14.1342   -1.9614    2.3670 hb      1  lig       0.105126
     13 C_0c         15.5208   -1.6510   -0.1688 c8      1  lig      -0.011674
     14 H_0d         15.9561   -1.0430    0.6253 hd      1  lig       0.066099
     15 H_0e         16.1302   -2.5543   -0.2235 he      1  lig       0.066099
     16 C_0f         12.3935   -3.1233    1.7770 c9      1  lig      -0.035176
     17 H_0g         11.7081   -2.2765    1.8081 hf      1  lig       0.113505
     18 H_0h         12.0887   -3.7946    0.9744 hg      1  lig       0.113505
     19 C_0i         15.6210   -0.9232   -1.5045 cb      1  lig      -0.126672
     20 O_0j         14.6678   -3.8395    1.6786 o1      1  lig      -0.643261
     21 H_0k         15.5929   -3.5494    1.8366 hh      1  lig       0.448670
     22 N_0l         12.2074   -3.8174    3.0715 ng      1  lig      -0.037157
     23 H_0m         13.0194   -4.4103    3.2050 hi      1  lig       0.229886
     24 C_0n         15.9610    0.4457   -1.5582 ci      1  lig      -0.156735
     25 H_0o         16.2059    0.9873   -0.6566 hj      1  lig       0.158854
     26 H_0p         12.2289   -3.1140    3.8236 hk      1  lig       0.229886
     27 C_0q         10.9869   -4.6571    3.2201 cj      1  lig       0.020679
     28 C_0r         15.9372    1.1326   -2.7893 ck      1  lig       0.159484
     29 F_0s         16.2294    2.4541   -2.8314 f0      1  lig      -0.154410
     30 C_0t         11.0069   -5.2331    4.6525 cm      1  lig      -0.071312
     31 H_0u         11.9912   -5.5071    4.9491 hl      1  lig       0.031161
     32 H_0v         10.9826   -4.3456    5.2674 hm      1  lig       0.031161
     33 C_0w         11.0458   -5.7977    2.1762 cn      1  lig       0.048608
     34 C_0x         15.5828    0.4543   -3.9721 co      1  lig      -0.152313
     35 H_0y         15.5617    0.9800   -4.9140 hq      1  lig       0.181532
     36 C_0z          9.7403   -6.0431    4.9863 cq      1  lig      -0.021281
     37 C_10         12.0601   -6.7741    2.2826 cr      1  lig      -0.125319
     38 C_11         15.2479   -0.9116   -3.9228 cs      1  lig       0.167694
     39 F_12         14.8574   -1.5568   -5.0469 f1      1  lig      -0.157047
     40 H_13          9.6396   -6.8715    4.2849 hr      1  lig       0.034216
     41 H_14          9.8021   -6.5080    5.9653 ht      1  lig       0.034216
     42 H_15         12.7337   -6.7233    3.1121 hu      1  lig       0.126204
     43 C_16          8.4931   -5.1535    4.8971 ct      1  lig      -0.017714
     44 H_17          7.6004   -5.7565    5.0672 hv      1  lig       0.028975
     45 H_18          8.4688   -4.3944    5.6709 hy      1  lig       0.028975
     46 C_19         12.1947   -7.8292    1.3560 cw      1  lig      -0.019487
     47 C_1a         15.2861   -1.5996   -2.6964 cA      1  lig      -0.092240
     48 H_1b         15.0146   -2.6429   -2.6722 hz      1  lig       0.134000
     49 C_1c          8.4017   -4.4775    3.5234 cB      1  lig      -0.013636
     50 H_1d          8.1436   -5.2309    2.7804 hA      1  lig       0.025716
     51 H_1e          7.5737   -3.7669    3.5146 hB      1  lig       0.025716
     52 C_1f         11.3310   -7.8741    0.2476 cC      1  lig      -0.069927
     53 H_1g         11.3738   -8.7058   -0.4257 hC      1  lig       0.178730
     54 C_1h          9.7155   -3.7556    3.1463 cD      1  lig      -0.026852
     55 H_1i          9.8391   -2.9054    3.8223 hD      1  lig       0.035369
     56 H_1j          9.6203   -3.3049    2.1632 hE      1  lig       0.035369
     57 C_1k         10.2903   -6.9323    0.1344 cE      1  lig      -0.254593
     58 H_1l          9.5713   -7.0240   -0.6663 hF      1  lig       0.184634
     59 C_1m         10.1636   -5.8909    1.0742 cF      1  lig      -0.048592
     60 H_1n          9.3437   -5.2109    0.9641 hG      1  lig       0.120189
     61 N_1o         13.1658   -8.8360    1.5822 nr      1  lig      -0.119405
     62 C_1p         14.2950   -8.6575    2.4778 cG      1  lig      -0.076142
     63 C_1q         15.2330   -9.7113    1.9836 cH      1  lig       0.080235
     64 N_1r         14.2274  -10.6883    1.6723 nw      1  lig      -0.614650
     65 C_1s         13.0789  -10.1554    1.2295 cI      1  lig       0.675157
     66 H_1t         14.0044   -8.7941    3.5190 hH      1  lig       0.077062
     67 H_1u         14.6914   -7.6568    2.3562 hI      1  lig       0.077062
     68 H_1v         15.8054   -9.4140    1.1007 hJ      1  lig       0.070697
     69 H_1w         15.9137  -10.0612    2.7612 hK      1  lig       0.070697
     70 O_1x         12.1717  -10.7726    0.6728 o2      1  lig      -0.570191
     71 H_1y         14.4235  -11.6779    1.6630 hL      1  lig       0.377791
@<TRIPOS>BOND
     1     1     5    1
     2     1     2    1
     3     1     3    1
     4     1     4    1
     5     5     7    1
     6     5     6    2
     7     7     9    1
     8     7     8    1
     9     9    11    1
    10     9    13    1
    11     9    10    1
    12    11    16    1
    13    11    20    1
    14    11    12    1
    15    13    19    1
    16    13    14    1
    17    13    15    1
    18    16    22    1
    19    16    17    1
    20    16    18    1
    21    19    24    2
    22    19    47    1
    23    20    21    1
    24    22    27    1
    25    22    23    1
    26    22    26    1
    27    24    28    1
    28    24    25    1
    29    27    30    1
    30    27    54    1
    31    27    33    1
    32    28    34    2
    33    28    29    1
    34    30    36    1
    35    30    31    1
    36    30    32    1
    37    33    37    2
    38    33    59    1
    39    34    38    1
    40    34    35    1
    41    36    43    1
    42    36    40    1
    43    36    41    1
    44    37    46    1
    45    37    42    1
    46    38    47    2
    47    38    39    1
    48    43    49    1
    49    43    44    1
    50    43    45    1
    51    46    52    2
    52    46    61    1
    53    47    48    1
    54    49    54    1
    55    49    50    1
    56    49    51    1
    57    52    57    1
    58    52    53    1
    59    54    55    1
    60    54    56    1
    61    57    59    2
    62    57    58    1
    63    59    60    1
    64    61    62    1
    65    61    65    1
    66    62    63    1
    67    62    66    1
    68    62    67    1
    69    63    64    1
    70    63    68    1
    71    63    69    1
    72    64    65    1
    73    64    71    1
    74    65    70    2
