@<TRIPOS>MOLECULE
lig
  77   80 0 0 0
SMALL
NO_CHARGES


@<TRIPOS>ATOM
      1 C_00         11.4892    0.6176   -0.8877 c4      1  lig      -0.224996
      2 H_01         12.1687    1.4205   -0.6019 h0      1  lig       0.083681
      3 H_02         11.1215    0.8315   -1.8909 h6      1  lig       0.083681
      4 H_03         10.6416    0.6178   -0.2026 h7      1  lig       0.083681
      5 C_04         12.1875   -0.7362   -0.8555 c5      1  lig       0.689271
      6 O_05         11.8224   -1.6379   -1.6098 o0      1  lig      -0.607967
      7 N_06         13.1926   -0.8607    0.0231 n0      1  lig      -0.606372
      8 H_07         13.4831   -0.0224    0.5217 h8      1  lig       0.315334
      9 C_08         14.0613   -2.0280    0.1837 c6      1  lig       0.071919
     10 H_09         13.7784   -2.7983   -0.5399 h9      1  lig       0.149656
     11 C_0a         13.8545   -2.6665    1.5794 c7      1  lig      -0.013670
     12 H_0b         14.1345   -1.9620    2.3673 hb      1  lig       0.104405
     13 C_0c         15.5208   -1.6510   -0.1688 c8      1  lig      -0.021784
     14 H_0d         15.9561   -1.0431    0.6254 hd      1  lig       0.066996
     15 H_0e         16.1301   -2.5545   -0.2234 he      1  lig       0.066996
     16 C_0f         12.3935   -3.1233    1.7770 c9      1  lig      -0.039865
     17 H_0g         11.7072   -2.2774    1.8078 hf      1  lig       0.116742
     18 H_0h         12.0894   -3.7967    0.9757 hg      1  lig       0.116742
     19 C_0i         15.6210   -0.9232   -1.5045 cb      1  lig      -0.112087
     20 O_0j         14.6679   -3.8395    1.6787 o1      1  lig      -0.610171
     21 H_0k         15.5929   -3.5498    1.8369 hh      1  lig       0.439507
     22 N_0l         12.2074   -3.8174    3.0716 ng      1  lig      -0.071225
     23 H_0m         13.0161   -4.4157    3.2023 hi      1  lig       0.233550
     24 C_0n         15.9610    0.4457   -1.5582 ci      1  lig      -0.170823
     25 H_0o         16.2058    0.9873   -0.6566 hj      1  lig       0.163352
     26 H_0p         12.2309   -3.1160    3.8249 hk      1  lig       0.233550
     27 C_0q         10.9869   -4.6571    3.2201 cj      1  lig       0.014480
     28 C_0r         15.9372    1.1326   -2.7893 ck      1  lig       0.165661
     29 F_0s         16.2294    2.4541   -2.8314 f0      1  lig      -0.155938
     30 C_0t         11.0069   -5.2331    4.6525 cm      1  lig      -0.090153
     31 H_0u         11.9920   -5.5100    4.9415 hl      1  lig       0.036776
     32 H_0v         10.9854   -4.3466    5.2688 hm      1  lig       0.036776
     33 C_0w         11.0459   -5.7977    2.1762 cn      1  lig       0.031528
     34 C_0x         15.5828    0.4543   -3.9721 co      1  lig      -0.142857
     35 H_0y         15.5617    0.9800   -4.9140 hq      1  lig       0.177747
     36 C_0z          9.7403   -6.0431    4.9863 cq      1  lig      -0.008944
     37 C_10         12.0601   -6.7741    2.2826 cr      1  lig      -0.163547
     38 C_11         15.2479   -0.9116   -3.9228 cs      1  lig       0.156271
     39 F_12         14.8574   -1.5568   -5.0469 f1      1  lig      -0.154792
     40 H_13          9.6411   -6.8714    4.2844 hr      1  lig       0.029589
     41 H_14          9.8027   -6.5084    5.9650 ht      1  lig       0.029589
     42 H_15         12.7706   -6.7132    3.0807 hu      1  lig       0.180514
     43 C_16          8.4931   -5.1535    4.8971 ct      1  lig       0.004220
     44 H_17          7.6006   -5.7568    5.0670 hv      1  lig       0.024208
     45 H_18          8.4691   -4.3944    5.6709 hy      1  lig       0.024208
     46 C_19         12.2168   -7.8019    1.3303 cw      1  lig      -0.030804
     47 C_1a         15.2861   -1.5996   -2.6964 cA      1  lig      -0.092920
     48 H_1b         15.0146   -2.6430   -2.6721 hz      1  lig       0.134829
     49 C_1c          8.4017   -4.4775    3.5234 cB      1  lig      -0.027037
     50 H_1d          8.1448   -5.2313    2.7804 hA      1  lig       0.028369
     51 H_1e          7.5736   -3.7672    3.5142 hB      1  lig       0.028369
     52 C_1f         11.3310   -7.8741    0.2476 cC      1  lig      -0.035791
     53 H_1g         11.3975   -8.6868   -0.4397 hC      1  lig       0.142063
     54 C_1h          9.7155   -3.7556    3.1463 cD      1  lig      -0.032734
     55 H_1i          9.8396   -2.9056    3.8222 hD      1  lig       0.043411
     56 H_1j          9.6206   -3.3059    2.1628 hE      1  lig       0.043411
     57 C_1k         10.2902   -6.9324    0.1344 cE      1  lig      -0.273056
     58 H_1l          9.5724   -7.0228   -0.6674 hF      1  lig       0.179772
     59 C_1m         10.1636   -5.8909    1.0742 cF      1  lig      -0.044202
     60 H_1n          9.3443   -5.2105    0.9642 hG      1  lig       0.126534
     61 C_1o         13.0303  -10.9090    0.1336 cG      1  lig      -0.000888
     62 C_1p         13.8126   -9.5801    0.2280 cH      1  lig      -0.037880
     63 C_1q         13.4599   -8.7030    1.4553 cI      1  lig      -0.016565
     64 C_1r         13.4858   -9.5574    2.7406 cJ      1  lig      -0.096932
     65 C_1s         12.5832  -10.7976    2.6198 cK      1  lig      -0.001304
     66 C_1t         13.0515  -11.6859    1.4646 cL      1  lig       0.038302
     67 H_1u         13.4536  -11.5137   -0.6686 hH      1  lig      -0.000790
     68 H_1v         11.9965  -10.7238   -0.1548 hI      1  lig      -0.000791
     69 H_1w         13.7106   -9.0046   -0.6930 hJ      1  lig       0.031514
     70 H_1x         14.8707   -9.8323    0.3102 hK      1  lig       0.031514
     71 H_1y         14.2678   -7.9728    1.5418 hL      1  lig       0.029773
     72 H_1z         14.5087   -9.8876    2.9323 hM      1  lig       0.035716
     73 H_20         13.2242   -8.9550    3.6058 hN      1  lig       0.035716
     74 H_21         12.5696  -11.3570    3.5539 hO      1  lig       0.003342
     75 H_22         11.5518  -10.4940    2.4363 hP      1  lig       0.003342
     76 H_23         12.4150  -12.5668    1.4217 hQ      1  lig       0.010139
     77 H_24         14.0631  -12.0413    1.6661 hR      1  lig       0.010139
@<TRIPOS>BOND
     1     1     5    1
     2     1     2    1
     3     1     3    1
     4     1     4    1
     5     5     7    1
     6     5     6    2
     7     7     9    1
     8     7     8    1
     9     9    11    1
    10     9    13    1
    11     9    10    1
    12    11    16    1
    13    11    20    1
    14    11    12    1
    15    13    19    1
    16    13    14    1
    17    13    15    1
    18    16    22    1
    19    16    17    1
    20    16    18    1
    21    19    24    2
    22    19    47    1
    23    20    21    1
    24    22    27    1
    25    22    23    1
    26    22    26    1
    27    24    28    1
    28    24    25    1
    29    27    30    1
    30    27    54    1
    31    27    33    1
    32    28    34    2
    33    28    29    1
    34    30    36    1
    35    30    31    1
    36    30    32    1
    37    33    37    2
    38    33    59    1
    39    34    38    1
    40    34    35    1
    41    36    43    1
    42    36    40    1
    43    36    41    1
    44    37    46    1
    45    37    42    1
    46    38    47    2
    47    38    39    1
    48    43    49    1
    49    43    44    1
    50    43    45    1
    51    46    52    2
    52    46    63    1
    53    47    48    1
    54    49    54    1
    55    49    50    1
    56    49    51    1
    57    52    57    1
    58    52    53    1
    59    54    55    1
    60    54    56    1
    61    57    59    2
    62    57    58    1
    63    59    60    1
    64    61    62    1
    65    61    66    1
    66    61    67    1
    67    61    68    1
    68    62    63    1
    69    62    69    1
    70    62    70    1
    71    63    64    1
    72    63    71    1
    73    64    65    1
    74    64    72    1
    75    64    73    1
    76    65    66    1
    77    65    74    1
    78    65    75    1
    79    66    76    1
    80    66    77    1
