@<TRIPOS>MOLECULE
lig
  75   78 0 0 0
SMALL
NO_CHARGES


@<TRIPOS>ATOM
      1 C_00         11.4892    0.6176   -0.8877 c4      1  lig      -0.201504
      2 H_01         11.1254    0.8332   -1.8919 h0      1  lig       0.078993
      3 H_02         10.6390    0.6163   -0.2058 h6      1  lig       0.078993
      4 H_03         12.1675    1.4201   -0.5979 h7      1  lig       0.078993
      5 C_04         12.1875   -0.7362   -0.8555 c5      1  lig       0.675179
      6 O_05         11.8224   -1.6379   -1.6098 o0      1  lig      -0.604375
      7 N_06         13.1926   -0.8607    0.0231 n0      1  lig      -0.599172
      8 H_07         13.4836   -0.0219    0.5208 h8      1  lig       0.323711
      9 C_08         14.0613   -2.0280    0.1837 c6      1  lig       0.047947
     10 H_09         13.7787   -2.7985   -0.5396 h9      1  lig       0.155089
     11 C_0a         13.8545   -2.6665    1.5794 c7      1  lig      -0.034779
     12 H_0b         14.1333   -1.9607    2.3666 hb      1  lig       0.106732
     13 C_0c         15.5208   -1.6510   -0.1688 c8      1  lig      -0.024372
     14 H_0d         15.9562   -1.0431    0.6253 hd      1  lig       0.070123
     15 H_0e         16.1303   -2.5543   -0.2237 he      1  lig       0.070123
     16 C_0f         12.3918   -3.1221    1.7762 c9      1  lig      -0.053079
     17 H_0g         11.7062   -2.2756    1.8071 hf      1  lig       0.119885
     18 H_0h         12.0881   -3.7945    0.9740 hg      1  lig       0.119885
     19 C_0i         15.6210   -0.9232   -1.5045 cb      1  lig      -0.125307
     20 O_0j         14.6898   -3.8583    1.6783 o1      1  lig      -0.532840
     21 H_0k         15.6143   -3.5635    1.8332 hh      1  lig       0.407458
     22 N_0l         12.2077   -3.8172    3.0724 ng      1  lig      -0.066726
     23 H_0m         13.0198   -4.4099    3.2060 hi      1  lig       0.235052
     24 C_0n         15.9610    0.4457   -1.5582 ci      1  lig      -0.151208
     25 H_0o         16.2059    0.9873   -0.6566 hj      1  lig       0.155152
     26 H_0p         12.2285   -3.1137    3.8246 hk      1  lig       0.235052
     27 C_0q         10.9864   -4.6582    3.2198 cj      1  lig       0.002118
     28 C_0r         15.9372    1.1326   -2.7893 ck      1  lig       0.159633
     29 F_0s         16.2294    2.4541   -2.8314 f0      1  lig      -0.153658
     30 C_0t         11.0067   -5.2328    4.6525 cm      1  lig      -0.113919
     31 H_0u         11.9908   -5.5071    4.9490 hl      1  lig       0.050557
     32 H_0v         10.9822   -4.3451    5.2671 hm      1  lig       0.050557
     33 C_0w         11.0460   -5.7978    2.1760 cn      1  lig       0.019586
     34 C_0x         15.5828    0.4543   -3.9721 co      1  lig      -0.151192
     35 H_0y         15.5617    0.9800   -4.9140 hq      1  lig       0.181212
     36 C_0z          9.7405   -6.0430    4.9862 cq      1  lig      -0.001708
     37 C_10         12.0599   -6.7742    2.2823 cr      1  lig      -0.109462
     38 C_11         15.2479   -0.9116   -3.9228 cs      1  lig       0.169465
     39 F_12         14.8574   -1.5568   -5.0469 f1      1  lig      -0.157639
     40 H_13          9.6403   -6.8715    4.2848 hr      1  lig       0.034892
     41 H_14          9.8024   -6.5079    5.9653 ht      1  lig       0.034892
     42 H_15         12.7235   -6.7473    3.1218 hu      1  lig       0.110580
     43 C_16          8.4931   -5.1535    4.8971 ct      1  lig      -0.014840
     44 H_17          7.6005   -5.7568    5.0670 hv      1  lig       0.027812
     45 H_18          8.4686   -4.3945    5.6710 hy      1  lig       0.027812
     46 C_19         12.1765   -7.8536    1.3754 cw      1  lig       0.008666
     47 C_1a         15.2861   -1.5996   -2.6964 cA      1  lig      -0.100789
     48 H_1b         15.0146   -2.6430   -2.6722 hz      1  lig       0.139935
     49 C_1c          8.4017   -4.4775    3.5234 cB      1  lig      -0.028186
     50 H_1d          8.1438   -5.2310    2.7804 hA      1  lig       0.034091
     51 H_1e          7.5737   -3.7670    3.5146 hB      1  lig       0.034091
     52 C_1f         11.3308   -7.8738    0.2478 cC      1  lig      -0.076755
     53 H_1g         11.3590   -8.7195   -0.4115 hC      1  lig       0.172954
     54 C_1h          9.7155   -3.7556    3.1463 cD      1  lig      -0.045087
     55 H_1i          9.8394   -2.9054    3.8222 hD      1  lig       0.048950
     56 H_1j          9.6202   -3.3051    2.1632 hE      1  lig       0.048950
     57 C_1k         10.2905   -6.9323    0.1345 cE      1  lig      -0.219633
     58 H_1l          9.5721   -7.0237   -0.6666 hF      1  lig       0.172904
     59 C_1m         10.1637   -5.8910    1.0743 cF      1  lig      -0.050185
     60 H_1n          9.3439   -5.2111    0.9642 hG      1  lig       0.123822
     61 C_1o         15.3820   -9.5311    1.3868 cG      1  lig      -0.028592
     62 C_1p         14.3480   -8.7089    2.1918 cH      1  lig      -0.022505
     63 N_1q         13.0060   -8.9598    1.6359 nr      1  lig      -0.115672
     64 C_1r         12.5198  -10.2455    1.6282 cI      1  lig       0.464180
     65 C_1s         13.6151  -11.3165    1.7466 cJ      1  lig      -0.011175
     66 C_1t         14.8498  -10.8958    0.9246 cK      1  lig      -0.008695
     67 H_1u         16.2600   -9.6916    2.0134 hH      1  lig       0.022868
     68 H_1v         15.7181   -8.9594    0.5214 hI      1  lig       0.022868
     69 H_1w         14.5807   -7.6475    2.1498 hJ      1  lig       0.039920
     70 H_1x         14.3566   -8.9978    3.2441 hK      1  lig       0.039920
     71 H_1y         13.2116  -12.2645    1.4032 hL      1  lig       0.037781
     72 H_1z         13.8509  -11.4333    2.8001 hM      1  lig       0.037781
     73 H_20         14.5879  -10.8688   -0.1348 hN      1  lig       0.028572
     74 H_21         15.6410  -11.6296    1.0214 hO      1  lig       0.028572
     75 O_22         11.3377  -10.5702    1.4877 o2      1  lig      -0.531254
@<TRIPOS>BOND
     1     1     5    1
     2     1     2    1
     3     1     3    1
     4     1     4    1
     5     5     7    1
     6     5     6    2
     7     7     9    1
     8     7     8    1
     9     9    11    1
    10     9    13    1
    11     9    10    1
    12    11    16    1
    13    11    20    1
    14    11    12    1
    15    13    19    1
    16    13    14    1
    17    13    15    1
    18    16    22    1
    19    16    17    1
    20    16    18    1
    21    19    24    2
    22    19    47    1
    23    20    21    1
    24    22    27    1
    25    22    23    1
    26    22    26    1
    27    24    28    1
    28    24    25    1
    29    27    30    1
    30    27    54    1
    31    27    33    1
    32    28    34    2
    33    28    29    1
    34    30    36    1
    35    30    31    1
    36    30    32    1
    37    33    37    2
    38    33    59    1
    39    34    38    1
    40    34    35    1
    41    36    43    1
    42    36    40    1
    43    36    41    1
    44    37    46    1
    45    37    42    1
    46    38    47    2
    47    38    39    1
    48    43    49    1
    49    43    44    1
    50    43    45    1
    51    46    52    2
    52    46    63    1
    53    47    48    1
    54    49    54    1
    55    49    50    1
    56    49    51    1
    57    52    57    1
    58    52    53    1
    59    54    55    1
    60    54    56    1
    61    57    59    2
    62    57    58    1
    63    59    60    1
    64    61    62    1
    65    61    66    1
    66    61    67    1
    67    61    68    1
    68    62    63    1
    69    62    69    1
    70    62    70    1
    71    63    64    1
    72    64    65    1
    73    64    75    2
    74    65    66    1
    75    65    71    1
    76    65    72    1
    77    66    73    1
    78    66    74    1
