@<TRIPOS>MOLECULE
lig
  73   76 0 0 0
SMALL
NO_CHARGES


@<TRIPOS>ATOM
      1 C_00         11.4892    0.6176   -0.8877 c4      1  lig      -0.084248
      2 H_01         12.1669    1.4199   -0.5959 h0      1  lig       0.045970
      3 H_02         11.1273    0.8340   -1.8924 h6      1  lig       0.045970
      4 H_03         10.6378    0.6156   -0.2074 h7      1  lig       0.045970
      5 C_04         12.1875   -0.7362   -0.8555 c5      1  lig       0.599931
      6 O_05         11.8224   -1.6379   -1.6098 o0      1  lig      -0.596721
      7 N_06         13.1926   -0.8607    0.0231 n0      1  lig      -0.423319
      8 H_07         13.4837   -0.0218    0.5206 h8      1  lig       0.274201
      9 C_08         14.0613   -2.0280    0.1837 c6      1  lig       0.015510
     10 H_09         13.7787   -2.7985   -0.5395 h9      1  lig       0.147693
     11 C_0a         13.8545   -2.6665    1.5794 c7      1  lig      -0.023800
     12 H_0b         14.1331   -1.9604    2.3666 hb      1  lig       0.110874
     13 C_0c         15.5208   -1.6510   -0.1688 c8      1  lig      -0.049010
     14 H_0d         15.9562   -1.0431    0.6253 hd      1  lig       0.068375
     15 H_0e         16.1303   -2.5543   -0.2236 he      1  lig       0.068375
     16 C_0f         12.3914   -3.1219    1.7759 c9      1  lig      -0.013987
     17 H_0g         11.7058   -2.2752    1.8070 hf      1  lig       0.069883
     18 H_0h         12.0878   -3.7942    0.9738 hg      1  lig       0.069883
     19 C_0i         15.6210   -0.9232   -1.5045 cb      1  lig      -0.072525
     20 O_0j         14.6945   -3.8624    1.6782 o1      1  lig      -0.662657
     21 H_0k         15.6184   -3.5660    1.8344 hh      1  lig       0.473482
     22 N_0l         12.2077   -3.8171    3.0726 ng      1  lig       0.008679
     23 H_0m         13.0198   -4.4098    3.2066 hi      1  lig       0.230309
     24 C_0n         15.9610    0.4457   -1.5582 ci      1  lig      -0.185360
     25 H_0o         16.2059    0.9873   -0.6566 hj      1  lig       0.163407
     26 H_0p         12.2281   -3.1137    3.8248 hk      1  lig       0.230309
     27 C_0q         10.9863   -4.6584    3.2197 cj      1  lig       0.006691
     28 C_0r         15.9372    1.1326   -2.7893 ck      1  lig       0.168078
     29 F_0s         16.2294    2.4541   -2.8314 f0      1  lig      -0.159388
     30 C_0t         11.0066   -5.2327    4.6524 cm      1  lig      -0.031720
     31 H_0u         11.9910   -5.5081    4.9467 hl      1  lig       0.025017
     32 H_0v         10.9831   -4.3453    5.2676 hm      1  lig       0.025017
     33 C_0w         11.0460   -5.7979    2.1759 cn      1  lig       0.046709
     34 C_0x         15.5828    0.4543   -3.9721 co      1  lig      -0.129396
     35 H_0y         15.5617    0.9800   -4.9140 hq      1  lig       0.171751
     36 C_0z          9.7406   -6.0429    4.9862 cq      1  lig      -0.006982
     37 C_10         12.0599   -6.7742    2.2822 cr      1  lig      -0.148657
     38 C_11         15.2479   -0.9116   -3.9228 cs      1  lig       0.158170
     39 F_12         14.8574   -1.5568   -5.0469 f1      1  lig      -0.156723
     40 H_13          9.6405   -6.8714    4.2847 hr      1  lig       0.038068
     41 H_14          9.8025   -6.5080    5.9652 ht      1  lig       0.038068
     42 H_15         12.7521   -6.7402    3.0985 hu      1  lig       0.188540
     43 C_16          8.4931   -5.1535    4.8971 ct      1  lig      -0.038845
     44 H_17          7.6005   -5.7568    5.0670 hv      1  lig       0.027912
     45 H_18          8.4686   -4.3945    5.6710 hy      1  lig       0.027912
     46 C_19         12.1753   -7.8539    1.3764 cw      1  lig      -0.026908
     47 C_1a         15.2861   -1.5996   -2.6964 cA      1  lig      -0.126491
     48 H_1b         15.0146   -2.6429   -2.6723 hz      1  lig       0.142832
     49 C_1c          8.4017   -4.4775    3.5234 cB      1  lig      -0.008284
     50 H_1d          8.1438   -5.2310    2.7804 hA      1  lig       0.021351
     51 H_1e          7.5736   -3.7670    3.5146 hB      1  lig       0.021351
     52 C_1f         11.3307   -7.8738    0.2479 cC      1  lig      -0.034645
     53 H_1g         11.3768   -8.7124   -0.4186 hC      1  lig       0.119902
     54 C_1h          9.7155   -3.7556    3.1463 cD      1  lig      -0.014903
     55 H_1i          9.8395   -2.9056    3.8224 hD      1  lig       0.030907
     56 H_1j          9.6202   -3.3049    2.1633 hE      1  lig       0.030907
     57 C_1k         10.2906   -6.9323    0.1346 cE      1  lig      -0.260253
     58 H_1l          9.5742   -7.0211   -0.6687 hF      1  lig       0.183163
     59 C_1m         10.1637   -5.8911    1.0743 cF      1  lig      -0.031794
     60 H_1n          9.3443   -5.2107    0.9639 hG      1  lig       0.123373
     61 C_1o         15.4794   -9.6631    1.1849 cG      1  lig       0.117248
     62 C_1p         14.4237   -8.5812    0.8885 cH      1  lig      -0.194901
     63 N_1q         13.1175   -8.8787    1.5206 nr      1  lig      -0.095898
     64 C_1r         12.6863  -10.1633    1.7348 cI      1  lig       0.569491
     65 C_1s         13.8130  -11.2121    1.7785 cJ      1  lig       0.057849
     66 O_1t         14.8940  -10.9171    0.8899 o2      1  lig      -0.375335
     67 H_1u         15.8054   -9.6306    2.2275 hH      1  lig       0.057383
     68 H_1v         16.3670   -9.5215    0.5677 hI      1  lig       0.057383
     69 H_1w         14.2678   -8.5162   -0.1895 hJ      1  lig       0.135398
     70 H_1x         14.7706   -7.6025    1.2108 hK      1  lig       0.135398
     71 H_1y         14.1386  -11.2587    2.8132 hL      1  lig       0.083208
     72 H_1z         13.3875  -12.1828    1.5342 hM      1  lig       0.083208
     73 O_20         11.5102  -10.4930    1.9170 o3      1  lig      -0.608356
@<TRIPOS>BOND
     1     1     5    1
     2     1     2    1
     3     1     3    1
     4     1     4    1
     5     5     7    1
     6     5     6    2
     7     7     9    1
     8     7     8    1
     9     9    11    1
    10     9    13    1
    11     9    10    1
    12    11    16    1
    13    11    20    1
    14    11    12    1
    15    13    19    1
    16    13    14    1
    17    13    15    1
    18    16    22    1
    19    16    17    1
    20    16    18    1
    21    19    24    2
    22    19    47    1
    23    20    21    1
    24    22    27    1
    25    22    23    1
    26    22    26    1
    27    24    28    1
    28    24    25    1
    29    27    30    1
    30    27    54    1
    31    27    33    1
    32    28    34    2
    33    28    29    1
    34    30    36    1
    35    30    31    1
    36    30    32    1
    37    33    37    2
    38    33    59    1
    39    34    38    1
    40    34    35    1
    41    36    43    1
    42    36    40    1
    43    36    41    1
    44    37    46    1
    45    37    42    1
    46    38    47    2
    47    38    39    1
    48    43    49    1
    49    43    44    1
    50    43    45    1
    51    46    52    2
    52    46    63    1
    53    47    48    1
    54    49    54    1
    55    49    50    1
    56    49    51    1
    57    52    57    1
    58    52    53    1
    59    54    55    1
    60    54    56    1
    61    57    59    2
    62    57    58    1
    63    59    60    1
    64    61    62    1
    65    61    66    1
    66    61    67    1
    67    61    68    1
    68    62    63    1
    69    62    69    1
    70    62    70    1
    71    63    64    1
    72    64    65    1
    73    64    73    2
    74    65    66    1
    75    65    71    1
    76    65    72    1
