@<TRIPOS>MOLECULE
lig
  74   77 0 0 0
SMALL
NO_CHARGES


@<TRIPOS>ATOM
      1 C_00         11.4892    0.6176   -0.8877 c4      1  lig      -0.207785
      2 H_01         11.1285    0.8348   -1.8927 h0      1  lig       0.080366
      3 H_02         10.6371    0.6150   -0.2082 h6      1  lig       0.080366
      4 H_03         12.1668    1.4194   -0.5943 h7      1  lig       0.080366
      5 C_04         12.1875   -0.7362   -0.8555 c5      1  lig       0.671258
      6 O_05         11.8224   -1.6379   -1.6098 o0      1  lig      -0.601264
      7 N_06         13.1926   -0.8607    0.0231 n0      1  lig      -0.588822
      8 H_07         13.4825   -0.0230    0.5223 h8      1  lig       0.324523
      9 C_08         14.0613   -2.0280    0.1837 c6      1  lig       0.026845
     10 H_09         13.7786   -2.7987   -0.5392 h9      1  lig       0.162767
     11 C_0a         13.8545   -2.6665    1.5794 c7      1  lig      -0.048785
     12 H_0b         14.1333   -1.9595    2.3664 hb      1  lig       0.116349
     13 C_0c         15.5208   -1.6510   -0.1688 c8      1  lig      -0.027566
     14 H_0d         15.9566   -1.0423    0.6247 hd      1  lig       0.071911
     15 H_0e         16.1303   -2.5541   -0.2248 he      1  lig       0.071911
     16 C_0f         12.3913   -3.1219    1.7759 c9      1  lig      -0.047806
     17 H_0g         11.7048   -2.2762    1.8084 hf      1  lig       0.119918
     18 H_0h         12.0873   -3.7946    0.9741 hg      1  lig       0.119918
     19 C_0i         15.6210   -0.9232   -1.5045 cb      1  lig      -0.123481
     20 O_0j         14.6945   -3.8623    1.6782 o1      1  lig      -0.571591
     21 H_0k         15.6203   -3.5666    1.8244 hh      1  lig       0.427991
     22 N_0l         12.2077   -3.8171    3.0726 ng      1  lig      -0.075813
     23 H_0m         13.0202   -4.4090    3.2077 hi      1  lig       0.239819
     24 C_0n         15.9610    0.4457   -1.5582 ci      1  lig      -0.153805
     25 H_0o         16.2063    0.9868   -0.6564 hj      1  lig       0.156616
     26 H_0p         12.2269   -3.1133    3.8247 hk      1  lig       0.239819
     27 C_0q         10.9863   -4.6584    3.2197 cj      1  lig       0.003163
     28 C_0r         15.9372    1.1326   -2.7893 ck      1  lig       0.160132
     29 F_0s         16.2294    2.4541   -2.8314 f0      1  lig      -0.153615
     30 C_0t         11.0066   -5.2327    4.6524 cm      1  lig      -0.101624
     31 H_0u         11.9908   -5.5076    4.9480 hl      1  lig       0.040454
     32 H_0v         10.9826   -4.3451    5.2674 hm      1  lig       0.040454
     33 C_0w         11.0460   -5.7979    2.1759 cn      1  lig       0.045569
     34 C_0x         15.5828    0.4543   -3.9721 co      1  lig      -0.153379
     35 H_0y         15.5618    0.9799   -4.9140 hq      1  lig       0.182291
     36 C_0z          9.7406   -6.0429    4.9862 cq      1  lig       0.001207
     37 C_10         12.0599   -6.7742    2.2822 cr      1  lig      -0.127294
     38 C_11         15.2479   -0.9116   -3.9228 cs      1  lig       0.164729
     39 F_12         14.8574   -1.5568   -5.0469 f1      1  lig      -0.157034
     40 H_13          9.6404   -6.8715    4.2848 hr      1  lig       0.032558
     41 H_14          9.8026   -6.5080    5.9652 ht      1  lig       0.032558
     42 H_15         12.7432   -6.7447    3.1063 hu      1  lig       0.142320
     43 C_16          8.4931   -5.1535    4.8971 ct      1  lig      -0.007162
     44 H_17          7.6005   -5.7567    5.0670 hv      1  lig       0.025926
     45 H_18          8.4686   -4.3945    5.6710 hy      1  lig       0.025926
     46 C_19         12.1775   -7.8559    1.3730 cw      1  lig      -0.011044
     47 C_1a         15.2861   -1.5996   -2.6964 cA      1  lig      -0.084279
     48 H_1b         15.0154   -2.6432   -2.6720 hz      1  lig       0.131143
     49 C_1c          8.4017   -4.4775    3.5234 cB      1  lig      -0.026093
     50 H_1d          8.1439   -5.2309    2.7803 hA      1  lig       0.030862
     51 H_1e          7.5736   -3.7670    3.5145 hB      1  lig       0.030862
     52 C_1f         11.3307   -7.8738    0.2479 cC      1  lig      -0.067018
     53 H_1g         11.3698   -8.7168   -0.4142 hC      1  lig       0.179643
     54 C_1h          9.7155   -3.7556    3.1463 cD      1  lig      -0.043152
     55 H_1i          9.8395   -2.9053    3.8220 hD      1  lig       0.046544
     56 H_1j          9.6205   -3.3052    2.1631 hE      1  lig       0.046544
     57 C_1k         10.2906   -6.9323    0.1346 cE      1  lig      -0.233983
     58 H_1l          9.5731   -7.0220   -0.6677 hF      1  lig       0.172371
     59 C_1m         10.1637   -5.8911    1.0743 cF      1  lig      -0.037205
     60 H_1n          9.3443   -5.2106    0.9639 hG      1  lig       0.121768
     61 C_1o         15.4449   -9.7563    1.4428 cG      1  lig      -0.033919
     62 C_1p         14.5044   -8.5321    1.4367 cH      1  lig      -0.053699
     63 N_1q         13.0777   -8.9057    1.5738 nr      1  lig      -0.061493
     64 C_1r         12.6089  -10.1879    1.7318 cI      1  lig       0.466365
     65 N_1s         13.5491  -11.1427    1.7394 nw      1  lig      -0.428351
     66 C_1t         14.7472  -11.0091    0.9156 cJ      1  lig       0.005651
     67 H_1u         15.7873   -9.9420    2.4636 hH      1  lig       0.039607
     68 H_1v         16.3408   -9.5563    0.8536 hI      1  lig       0.039607
     69 H_1w         14.6310   -7.9738    0.5068 hJ      1  lig       0.058406
     70 H_1x         14.7441   -7.8614    2.2594 hK      1  lig       0.058406
     71 H_1y         14.4916  -10.9370   -0.1445 hL      1  lig       0.073149
     72 H_1z         15.3716  -11.8812    1.0531 hM      1  lig       0.073149
     73 O_20         11.4375  -10.5402    1.8713 o2      1  lig      -0.555012
     74 H_21         13.2295  -12.0578    2.0119 hN      1  lig       0.319967
@<TRIPOS>BOND
     1     1     5    1
     2     1     2    1
     3     1     3    1
     4     1     4    1
     5     5     7    1
     6     5     6    2
     7     7     9    1
     8     7     8    1
     9     9    11    1
    10     9    13    1
    11     9    10    1
    12    11    16    1
    13    11    20    1
    14    11    12    1
    15    13    19    1
    16    13    14    1
    17    13    15    1
    18    16    22    1
    19    16    17    1
    20    16    18    1
    21    19    24    2
    22    19    47    1
    23    20    21    1
    24    22    27    1
    25    22    23    1
    26    22    26    1
    27    24    28    1
    28    24    25    1
    29    27    30    1
    30    27    54    1
    31    27    33    1
    32    28    34    2
    33    28    29    1
    34    30    36    1
    35    30    31    1
    36    30    32    1
    37    33    37    2
    38    33    59    1
    39    34    38    1
    40    34    35    1
    41    36    43    1
    42    36    40    1
    43    36    41    1
    44    37    46    1
    45    37    42    1
    46    38    47    2
    47    38    39    1
    48    43    49    1
    49    43    44    1
    50    43    45    1
    51    46    52    2
    52    46    63    1
    53    47    48    1
    54    49    54    1
    55    49    50    1
    56    49    51    1
    57    52    57    1
    58    52    53    1
    59    54    55    1
    60    54    56    1
    61    57    59    2
    62    57    58    1
    63    59    60    1
    64    61    62    1
    65    61    66    1
    66    61    67    1
    67    61    68    1
    68    62    63    1
    69    62    69    1
    70    62    70    1
    71    63    64    1
    72    64    65    1
    73    64    73    2
    74    65    66    1
    75    65    74    1
    76    66    71    1
    77    66    72    1
