@<TRIPOS>MOLECULE
lig
  76   79 0 0 0
SMALL
NO_CHARGES


@<TRIPOS>ATOM
      1 C_00         11.4892    0.6176   -0.8877 c4      1  lig      -0.204230
      2 H_01         11.1285    0.8348   -1.8927 h0      1  lig       0.080798
      3 H_02         10.6371    0.6150   -0.2083 h6      1  lig       0.080798
      4 H_03         12.1667    1.4194   -0.5942 h7      1  lig       0.080798
      5 C_04         12.1875   -0.7362   -0.8555 c5      1  lig       0.637741
      6 O_05         11.8224   -1.6379   -1.6098 o0      1  lig      -0.584186
      7 N_06         13.1926   -0.8607    0.0231 n0      1  lig      -0.607074
      8 H_07         13.4824   -0.0233    0.5227 h8      1  lig       0.346885
      9 C_08         14.0613   -2.0280    0.1837 c6      1  lig       0.015623
     10 H_09         13.7787   -2.7992   -0.5390 h9      1  lig       0.177550
     11 C_0a         13.8545   -2.6665    1.5794 c7      1  lig       0.053653
     12 H_0b         14.1339   -1.9601    2.3666 hb      1  lig       0.119137
     13 C_0c         15.5208   -1.6510   -0.1688 c8      1  lig      -0.064804
     14 H_0d         15.9566   -1.0425    0.6248 hd      1  lig       0.086204
     15 H_0e         16.1299   -2.5545   -0.2247 he      1  lig       0.086204
     16 C_0f         12.3916   -3.1221    1.7761 c9      1  lig      -0.027710
     17 H_0g         12.0895   -3.7969    0.9752 hf      1  lig       0.083748
     18 H_0h         11.7042   -2.2771    1.8074 hg      1  lig       0.083748
     19 C_0i         15.6210   -0.9232   -1.5045 cb      1  lig      -0.072799
     20 O_0j         14.6897   -3.8583    1.6785 o1      1  lig      -0.594949
     21 H_0k         15.6175   -3.5673    1.8180 hh      1  lig       0.406348
     22 N_0l         12.2076   -3.8172    3.0724 ng      1  lig      -0.095798
     23 H_0m         13.0180   -4.4142    3.2011 hi      1  lig       0.260629
     24 C_0n         15.9610    0.4457   -1.5582 ci      1  lig      -0.170091
     25 H_0o         16.2063    0.9868   -0.6564 hj      1  lig       0.149285
     26 H_0p         12.2310   -3.1155    3.8259 hk      1  lig       0.260629
     27 C_0q         10.9864   -4.6583    3.2198 cj      1  lig      -0.020796
     28 C_0r         15.9372    1.1326   -2.7893 ck      1  lig       0.191120
     29 F_0s         16.2294    2.4541   -2.8314 f0      1  lig      -0.163937
     30 C_0t         11.0067   -5.2328    4.6525 cm      1  lig      -0.111133
     31 H_0u         11.9914   -5.5085    4.9448 hl      1  lig       0.053251
     32 H_0v         10.9838   -4.3455    5.2678 hm      1  lig       0.053251
     33 C_0w         11.0460   -5.7979    2.1760 cn      1  lig       0.032338
     34 C_0x         15.5828    0.4543   -3.9721 co      1  lig      -0.134764
     35 H_0y         15.5618    0.9799   -4.9140 hq      1  lig       0.173945
     36 C_0z          9.7406   -6.0430    4.9862 cq      1  lig      -0.015511
     37 C_10         12.0599   -6.7744    2.2823 cr      1  lig      -0.182749
     38 C_11         15.2479   -0.9116   -3.9228 cs      1  lig       0.054122
     39 F_12         14.8574   -1.5568   -5.0469 f1      1  lig      -0.126286
     40 H_13          9.6401   -6.8714    4.2848 hr      1  lig       0.032940
     41 H_14          9.8026   -6.5080    5.9652 ht      1  lig       0.032940
     42 H_15         12.7491   -6.7443    3.1014 hu      1  lig       0.194187
     43 C_16          8.4931   -5.1535    4.8971 ct      1  lig      -0.009728
     44 H_17          7.6004   -5.7566    5.0672 hv      1  lig       0.031901
     45 H_18          8.4688   -4.3943    5.6709 hy      1  lig       0.031901
     46 C_19         12.1815   -7.8466    1.3620 cw      1  lig      -0.029191
     47 C_1a         15.2861   -1.5996   -2.6964 cA      1  lig      -0.079376
     48 H_1b         15.0154   -2.6432   -2.6716 hz      1  lig       0.141724
     49 C_1c          8.4017   -4.4775    3.5234 cB      1  lig      -0.015351
     50 H_1d          8.1440   -5.2309    2.7803 hA      1  lig       0.026655
     51 H_1e          7.5737   -3.7670    3.5144 hB      1  lig       0.026655
     52 C_1f         11.3308   -7.8738    0.2478 cC      1  lig      -0.043030
     53 H_1g         11.3758   -8.7152   -0.4144 hC      1  lig       0.163357
     54 C_1h          9.7155   -3.7556    3.1463 cD      1  lig      -0.087889
     55 H_1i          9.8398   -2.9054    3.8221 hD      1  lig       0.062082
     56 H_1j          9.6207   -3.3052    2.1630 hE      1  lig       0.062082
     57 C_1k         10.2905   -6.9323    0.1346 cE      1  lig      -0.251646
     58 H_1l          9.5728   -7.0222   -0.6674 hF      1  lig       0.177478
     59 C_1m         10.1637   -5.8910    1.0743 cF      1  lig      -0.006902
     60 H_1n          9.3447   -5.2103    0.9639 hG      1  lig       0.150237
     61 N_1o         13.0889   -8.8906    1.5648 nr      1  lig      -0.102944
     62 C_1p         12.5850  -10.2044    1.9898 cG      1  lig      -0.222457
     63 C_1q         12.4979  -11.2278    0.8432 cH      1  lig      -0.001792
     64 C_1r         13.5608  -11.0691   -0.2629 cI      1  lig       0.179682
     65 O_1s         14.8867  -11.0295    0.2610 o2      1  lig      -0.378492
     66 C_1t         15.2586   -9.9808    1.1862 cJ      1  lig      -0.023076
     67 C_1u         14.3730   -8.7049    1.1413 cK      1  lig       0.489930
     68 H_1v         13.2113  -10.5897    2.7966 hH      1  lig       0.144092
     69 H_1w         11.5918  -10.0970    2.4234 hI      1  lig       0.144092
     70 H_1x         12.5568  -12.2218    1.2827 hJ      1  lig       0.031841
     71 H_1y         11.5138  -11.1491    0.3789 hK      1  lig       0.031841
     72 H_1z         13.5105  -11.8801   -0.9766 hL      1  lig       0.035555
     73 H_20         13.3651  -10.1819   -0.8684 hM      1  lig       0.035555
     74 H_21         15.3043  -10.3624    2.2052 hN      1  lig       0.115442
     75 H_22         16.2826   -9.6957    0.9451 hO      1  lig       0.115442
     76 O_23         14.8200   -7.6613    0.6825 o3      1  lig      -0.596725
@<TRIPOS>BOND
     1     1     5    1
     2     1     2    1
     3     1     3    1
     4     1     4    1
     5     5     7    1
     6     5     6    2
     7     7     9    1
     8     7     8    1
     9     9    11    1
    10     9    13    1
    11     9    10    1
    12    11    16    1
    13    11    20    1
    14    11    12    1
    15    13    19    1
    16    13    14    1
    17    13    15    1
    18    16    22    1
    19    16    17    1
    20    16    18    1
    21    19    24    2
    22    19    47    1
    23    20    21    1
    24    22    27    1
    25    22    23    1
    26    22    26    1
    27    24    28    1
    28    24    25    1
    29    27    30    1
    30    27    54    1
    31    27    33    1
    32    28    34    2
    33    28    29    1
    34    30    36    1
    35    30    31    1
    36    30    32    1
    37    33    37    2
    38    33    59    1
    39    34    38    1
    40    34    35    1
    41    36    43    1
    42    36    40    1
    43    36    41    1
    44    37    46    1
    45    37    42    1
    46    38    47    2
    47    38    39    1
    48    43    49    1
    49    43    44    1
    50    43    45    1
    51    46    52    2
    52    46    61    1
    53    47    48    1
    54    49    54    1
    55    49    50    1
    56    49    51    1
    57    52    57    1
    58    52    53    1
    59    54    55    1
    60    54    56    1
    61    57    59    2
    62    57    58    1
    63    59    60    1
    64    61    62    1
    65    61    67    1
    66    62    63    1
    67    62    68    1
    68    62    69    1
    69    63    64    1
    70    63    70    1
    71    63    71    1
    72    64    65    1
    73    64    72    1
    74    64    73    1
    75    65    66    1
    76    66    67    1
    77    66    74    1
    78    66    75    1
    79    67    76    2
