@<TRIPOS>MOLECULE
lig
  77   80 0 0 0
SMALL
NO_CHARGES


@<TRIPOS>ATOM
      1 C_00         11.4892    0.6176   -0.8877 c4      1  lig      -0.197460
      2 H_01         11.1221    0.8317   -1.8910 h0      1  lig       0.077725
      3 H_02         10.6413    0.6175   -0.2030 h6      1  lig       0.077725
      4 H_03         12.1685    1.4204   -0.6013 h7      1  lig       0.077725
      5 C_04         12.1875   -0.7362   -0.8555 c5      1  lig       0.660233
      6 O_05         11.8224   -1.6379   -1.6098 o0      1  lig      -0.596133
      7 N_06         13.1926   -0.8607    0.0231 n0      1  lig      -0.608447
      8 H_07         13.4835   -0.0220    0.5210 h8      1  lig       0.327997
      9 C_08         14.0613   -2.0280    0.1837 c6      1  lig       0.052167
     10 H_09         13.7789   -2.7988   -0.5394 h9      1  lig       0.164292
     11 C_0a         13.8545   -2.6665    1.5794 c7      1  lig      -0.003470
     12 H_0b         14.1335   -1.9610    2.3668 hb      1  lig       0.104074
     13 C_0c         15.5208   -1.6510   -0.1688 c8      1  lig      -0.028088
     14 H_0d         15.9560   -1.0430    0.6253 hd      1  lig       0.070002
     15 H_0e         16.1304   -2.5543   -0.2233 he      1  lig       0.070002
     16 C_0f         12.3913   -3.1218    1.7758 c9      1  lig      -0.040666
     17 H_0g         12.0873   -3.7942    0.9739 hf      1  lig       0.111445
     18 H_0h         11.7058   -2.2751    1.8075 hg      1  lig       0.111445
     19 C_0i         15.6210   -0.9232   -1.5045 cb      1  lig      -0.121546
     20 O_0j         14.6942   -3.8624    1.6784 o1      1  lig      -0.626991
     21 H_0k         15.6183   -3.5678    1.8352 hh      1  lig       0.445762
     22 N_0l         12.2077   -3.8171    3.0726 ng      1  lig      -0.073722
     23 H_0m         13.0172   -4.4146    3.2041 hi      1  lig       0.235862
     24 C_0n         15.9610    0.4457   -1.5582 ci      1  lig      -0.152552
     25 H_0o         16.2059    0.9873   -0.6566 hj      1  lig       0.157087
     26 H_0p         12.2305   -3.1155    3.8260 hk      1  lig       0.235862
     27 C_0q         10.9862   -4.6586    3.2197 cj      1  lig      -0.011372
     28 C_0r         15.9372    1.1326   -2.7893 ck      1  lig       0.157604
     29 F_0s         16.2294    2.4541   -2.8314 f0      1  lig      -0.155177
     30 C_0t         11.0066   -5.2327    4.6524 cm      1  lig      -0.073307
     31 H_0u         11.9916   -5.5096    4.9424 hl      1  lig       0.026083
     32 H_0v         10.9848   -4.3458    5.2683 hm      1  lig       0.026083
     33 C_0w         11.0460   -5.7979    2.1759 cn      1  lig      -0.008786
     34 C_0x         15.5828    0.4543   -3.9721 co      1  lig      -0.151178
     35 H_0y         15.5617    0.9800   -4.9140 hq      1  lig       0.180201
     36 C_0z          9.7406   -6.0429    4.9862 cq      1  lig      -0.008521
     37 C_10         12.0599   -6.7745    2.2822 cr      1  lig      -0.050103
     38 C_11         15.2479   -0.9116   -3.9228 cs      1  lig       0.168304
     39 F_12         14.8574   -1.5568   -5.0469 f1      1  lig      -0.158979
     40 H_13          9.6406   -6.8717    4.2852 hr      1  lig       0.033618
     41 H_14          9.8028   -6.5077    5.9653 ht      1  lig       0.033618
     42 H_15         12.7724   -6.7098    3.0767 hu      1  lig       0.180991
     43 C_16          8.4931   -5.1535    4.8971 ct      1  lig       0.000412
     44 H_17          7.6006   -5.7568    5.0671 hv      1  lig       0.022485
     45 H_18          8.4688   -4.3944    5.6709 hy      1  lig       0.022485
     46 C_19         12.1904   -7.8423    1.3605 cw      1  lig       0.046112
     47 C_1a         15.2861   -1.5996   -2.6964 cA      1  lig      -0.094107
     48 H_1b         15.0147   -2.6430   -2.6722 hz      1  lig       0.135247
     49 C_1c          8.4017   -4.4775    3.5234 cB      1  lig      -0.019598
     50 H_1d          8.1442   -5.2309    2.7802 hA      1  lig       0.024584
     51 H_1e          7.5737   -3.7671    3.5145 hB      1  lig       0.024584
     52 C_1f         11.3308   -7.8738    0.2479 cC      1  lig      -0.065841
     53 H_1g         11.3806   -8.7087   -0.4195 hC      1  lig       0.155671
     54 C_1h          9.7155   -3.7556    3.1463 cD      1  lig      -0.034187
     55 H_1i          9.8397   -2.9056    3.8222 hD      1  lig       0.051351
     56 H_1j          9.6201   -3.3058    2.1629 hE      1  lig       0.051351
     57 C_1k         10.2906   -6.9322    0.1346 cE      1  lig      -0.276925
     58 H_1l          9.5733   -7.0226   -0.6676 hF      1  lig       0.183601
     59 C_1m         10.1638   -5.8910    1.0744 cF      1  lig      -0.048885
     60 H_1n          9.3441   -5.2107    0.9645 hG      1  lig       0.125665
     61 N_1o         13.2987   -8.7134    1.4680 nr      1  lig      -0.328017
     62 C_1p         13.4641   -9.4869    2.6992 cG      1  lig      -0.059282
     63 C_1q         12.5224  -10.7024    2.8148 cH      1  lig       0.051797
     64 C_1r         12.9158  -11.9320    2.0099 cI      1  lig       0.053718
     65 O_1s         12.9677  -11.6688    0.6177 o2      1  lig      -0.363883
     66 C_1t         14.0829  -10.8839    0.2086 cJ      1  lig      -0.002188
     67 C_1u         13.8592   -9.3530    0.2667 cK      1  lig      -0.054292
     68 H_1v         14.5160   -9.7293    2.8646 hH      1  lig       0.071567
     69 H_1w         13.2567   -8.8250    3.5389 hI      1  lig       0.071567
     70 H_1x         12.4571  -11.0065    3.8586 hJ      1  lig       0.001307
     71 H_1y         11.5140  -10.4262    2.5069 hK      1  lig       0.001308
     72 H_1z         13.8522  -12.3543    2.3679 hL      1  lig       0.077295
     73 H_20         12.1679  -12.7089    2.1745 hM      1  lig       0.077295
     74 H_21         14.9852  -11.1580    0.7615 hN      1  lig       0.085553
     75 H_22         14.2999  -11.1673   -0.8205 hO      1  lig       0.085553
     76 H_23         14.8886   -8.9936    0.2967 hP      1  lig       0.103644
     77 H_24         13.5052   -8.9280   -0.6725 hQ      1  lig       0.103644
@<TRIPOS>BOND
     1     1     5    1
     2     1     2    1
     3     1     3    1
     4     1     4    1
     5     5     7    1
     6     5     6    2
     7     7     9    1
     8     7     8    1
     9     9    11    1
    10     9    13    1
    11     9    10    1
    12    11    16    1
    13    11    20    1
    14    11    12    1
    15    13    19    1
    16    13    14    1
    17    13    15    1
    18    16    22    1
    19    16    17    1
    20    16    18    1
    21    19    24    2
    22    19    47    1
    23    20    21    1
    24    22    27    1
    25    22    23    1
    26    22    26    1
    27    24    28    1
    28    24    25    1
    29    27    30    1
    30    27    54    1
    31    27    33    1
    32    28    34    2
    33    28    29    1
    34    30    36    1
    35    30    31    1
    36    30    32    1
    37    33    37    2
    38    33    59    1
    39    34    38    1
    40    34    35    1
    41    36    43    1
    42    36    40    1
    43    36    41    1
    44    37    46    1
    45    37    42    1
    46    38    47    2
    47    38    39    1
    48    43    49    1
    49    43    44    1
    50    43    45    1
    51    46    52    2
    52    46    61    1
    53    47    48    1
    54    49    54    1
    55    49    50    1
    56    49    51    1
    57    52    57    1
    58    52    53    1
    59    54    55    1
    60    54    56    1
    61    57    59    2
    62    57    58    1
    63    59    60    1
    64    61    62    1
    65    61    67    1
    66    62    63    1
    67    62    68    1
    68    62    69    1
    69    63    64    1
    70    63    70    1
    71    63    71    1
    72    64    65    1
    73    64    72    1
    74    64    73    1
    75    65    66    1
    76    66    67    1
    77    66    74    1
    78    66    75    1
    79    67    76    1
    80    67    77    1
