@<TRIPOS>MOLECULE
lig
  45   48 0 0 0
SMALL
NO_CHARGES


@<TRIPOS>ATOM
      1 C_00          5.8176    1.3180  -21.2772 c4      1  lig       0.079739
      2 C_01          6.6053    0.9092  -22.3676 c5      1  lig      -0.151858
      3 C_02          6.8756   -0.4394  -22.5915 c6      1  lig      -0.256324
      4 C_03          6.3743   -1.4066  -21.7274 c7      1  lig       0.394008
      5 C_04          5.5910   -1.0371  -20.6281 c8      1  lig      -0.252987
      6 C_05          5.3100    0.3206  -20.4292 c9      1  lig      -0.052704
      7 C_06          5.1049   -2.0570  -19.6633 cb      1  lig      -0.139843
      8 C_07          5.9928   -2.8977  -18.9841 ci      1  lig       0.386809
      9 N_08          5.5840   -3.8171  -18.0728 n0      1  lig      -0.713304
     10 C_09          4.2493   -3.8943  -17.8501 cj      1  lig       0.732280
     11 N_0a          3.3018   -3.1437  -18.4660 ng      1  lig      -0.733835
     12 C_0b          3.7479   -2.2304  -19.3706 ck      1  lig       0.410189
     13 F_0c          6.6584   -2.7100  -21.9521 f0      1  lig      -0.189347
     14 C_0d          5.8868    3.7328  -22.1915 cm      1  lig      -0.007490
     15 C_0e          7.0776    4.4770  -22.2604 cn      1  lig      -0.115626
     16 C_0f          7.3441    5.2384  -23.3987 co      1  lig       0.173194
     17 N_0g          6.4969    5.3014  -24.4578 nr      1  lig      -0.454880
     18 C_0h          5.3375    4.5856  -24.3995 cq      1  lig       0.334309
     19 C_0i          5.0092    3.8021  -23.2867 cr      1  lig      -0.215112
     20 C_0j          4.4119    4.6803  -25.6204 cs      1  lig       0.391965
     21 F_0k          5.0317    4.2222  -26.7062 f1      1  lig      -0.139010
     22 F_0l          3.2935    3.9715  -25.4717 f2      1  lig      -0.158150
     23 F_0m          4.0775    5.9544  -25.8332 f3      1  lig      -0.150482
     24 H_0n          7.0305    1.6270  -23.0539 h0      1  lig       0.211690
     25 H_0o          7.4772   -0.7420  -23.4363 h6      1  lig       0.197694
     26 H_0p          4.7242    0.6167  -19.5746 h7      1  lig       0.076076
     27 H_0q          7.0595   -2.8292  -19.1585 h8      1  lig       0.107221
     28 H_0r          3.9153   -4.6121  -17.1103 h9      1  lig       0.032242
     29 H_0s          2.9992   -1.6189  -19.8585 hb      1  lig       0.062222
     30 H_0t          7.8049    4.4506  -21.4610 hd      1  lig       0.134714
     31 H_0u          8.2633    5.8049  -23.4742 he      1  lig       0.131120
     32 H_0v          4.0869    3.2366  -23.2789 hf      1  lig       0.125390
     33 N_0w          6.3046    3.1640  -19.8064 nw      1  lig      -0.402245
     34 C_0x          5.5175    3.5310  -18.8697 ct      1  lig       0.406593
     35 C_0y          4.1064    3.4969  -19.3383 cw      1  lig       0.462806
     36 N_0z          4.1588    3.0654  -20.5779 nA      1  lig      -0.258274
     37 C_10          5.5327    2.8191  -20.9877 cA      1  lig       0.036774
     38 N_11          2.9860    3.8146  -18.7049 nB      1  lig      -0.830004
     39 H_12          2.0816    3.7569  -19.2183 hg      1  lig       0.447549
     40 H_13          2.8893    4.0824  -17.7182 hh      1  lig       0.447549
     41 H_14          3.3209    3.0372  -21.1794 hi      1  lig       0.355631
     42 C_15          5.9357    3.9268  -17.4733 cB      1  lig      -0.171394
     43 H_16          6.8829    4.4646  -17.4787 hj      1  lig       0.085035
     44 H_17          5.1862    4.5697  -17.0127 hk      1  lig       0.085035
     45 H_18          6.0473    3.0468  -16.8413 hl      1  lig       0.085035
@<TRIPOS>BOND
     1     1     6    1
     2     1     2    2
     3    37     1    1
     4     2     3    1
     5     2    24    1
     6     3     4    2
     7     3    25    1
     8     4     5    1
     9     4    13    1
    10     5     6    2
    11     5     7    1
    12     6    26    1
    13     7    12    1
    14     7     8    2
    15     8     9    1
    16     8    27    1
    17     9    10    2
    18    10    28    1
    19    10    11    1
    20    11    12    2
    21    12    29    1
    22    14    15    2
    23    14    19    1
    24    14    37    1
    25    15    30    1
    26    15    16    1
    27    16    17    2
    28    16    31    1
    29    17    18    1
    30    18    19    2
    31    18    20    1
    32    19    32    1
    33    20    22    1
    34    20    21    1
    35    20    23    1
    36    33    34    2
    37    33    37    1
    38    34    42    1
    39    34    35    1
    40    35    38    1
    41    35    36    2
    42    36    37    1
    43    36    41    1
    44    38    40    1
    45    38    39    1
    46    42    43    1
    47    42    44    1
    48    42    45    1
