@<TRIPOS>MOLECULE
lig
  49   52 0 0 0
SMALL
NO_CHARGES


@<TRIPOS>ATOM
      1 C_00          5.7501    1.2704  -21.2264 c4      1  lig       0.031384
      2 C_01          6.4829    0.8720  -22.3595 c5      1  lig      -0.120893
      3 C_02          6.7126   -0.4766  -22.6255 c6      1  lig      -0.269172
      4 C_03          6.2106   -1.4537  -21.7728 c7      1  lig       0.369270
      5 C_04          5.4648   -1.0936  -20.6451 c8      1  lig      -0.149556
      6 C_05          5.2283    0.2643  -20.4023 c9      1  lig      -0.151824
      7 C_06          4.9875   -2.1189  -19.6830 cb      1  lig      -0.177476
      8 C_07          5.8773   -2.9884  -19.0446 ci      1  lig       0.397790
      9 N_08          5.4783   -3.9035  -18.1251 n0      1  lig      -0.716220
     10 C_09          4.1515   -3.9453  -17.8519 cj      1  lig       0.741341
     11 N_0a          3.2017   -3.1659  -18.4268 ng      1  lig      -0.732589
     12 C_0b          3.6384   -2.2588  -19.3418 ck      1  lig       0.417086
     13 F_0c          6.4641   -2.7566  -22.0325 f0      1  lig      -0.186809
     14 C_0d          5.9613    3.7191  -21.9903 cm      1  lig       0.030311
     15 C_0e          7.1127    4.5219  -21.9874 cn      1  lig      -0.160384
     16 C_0f          7.3951    5.3117  -23.1049 co      1  lig       0.188888
     17 N_0g          6.5936    5.3583  -24.2018 nr      1  lig      -0.450862
     18 C_0h          5.4587    4.6021  -24.2019 cq      1  lig       0.326601
     19 C_0i          5.1219    3.7839  -23.1177 cr      1  lig      -0.187958
     20 C_0j          4.5652    4.6901  -25.4497 cs      1  lig       0.315547
     21 F_0k          5.1891    4.1644  -26.5010 f1      1  lig      -0.117770
     22 F_0l          3.4177    4.0290  -25.3015 f2      1  lig      -0.145795
     23 F_0m          4.2812    5.9651  -25.7273 f3      1  lig      -0.125683
     24 H_0n          6.9186    1.5963  -23.0323 h0      1  lig       0.188975
     25 H_0o          7.2856   -0.7715  -23.4930 h6      1  lig       0.200013
     26 H_0p          4.6953    0.5579  -19.5159 h7      1  lig       0.107195
     27 H_0q          6.9385   -2.9447  -19.2567 h8      1  lig       0.106451
     28 H_0r          3.8263   -4.6579  -17.1037 h9      1  lig       0.032239
     29 H_0s          2.8902   -1.6213  -19.7957 hb      1  lig       0.060649
     30 H_0t          7.8012    4.5217  -21.1557 hd      1  lig       0.123121
     31 H_0u          8.2905    5.9190  -23.1325 he      1  lig       0.130460
     32 H_0v          4.2217    3.1842  -23.1562 hf      1  lig       0.117574
     33 N_0w          6.2343    3.0637  -19.5208 nw      1  lig      -0.032818
     34 C_0x          5.4088    4.0054  -18.7628 ct      1  lig      -0.103161
     35 C_0y          4.0677    3.7029  -19.3093 cw      1  lig       0.537402
     36 N_0z          4.1929    3.0573  -20.4569 nA      1  lig      -0.395138
     37 C_10          5.5840    2.7661  -20.8261 cA      1  lig      -0.009884
     38 N_11          2.9149    3.9963  -18.7429 nB      1  lig      -0.786534
     39 H_12          2.7791    4.3118  -17.7738 hg      1  lig       0.440228
     40 H_13          2.0269    3.8244  -19.2646 hh      1  lig       0.440228
     41 H_14          3.3715    2.8953  -21.0521 hi      1  lig       0.397128
     42 C_15          7.4292    2.6781  -18.9985 cB      1  lig       0.476018
     43 H_16          5.6590    5.0454  -18.9739 hj      1  lig       0.138011
     44 H_17          5.4158    3.8385  -17.6836 hk      1  lig       0.138011
     45 C_18          8.3242    1.6911  -19.7283 cC      1  lig      -0.015917
     46 O_19          7.8306    3.0989  -17.9107 o0      1  lig      -0.529001
     47 H_1a          7.9202    0.6824  -19.6694 hl      1  lig       0.037841
     48 H_1b          8.4436    1.9697  -20.7731 hm      1  lig       0.037841
     49 H_1c          9.3040    1.6726  -19.2556 hq      1  lig       0.037841
@<TRIPOS>BOND
     1     1     6    1
     2     1     2    2
     3    37     1    1
     4     2     3    1
     5     2    24    1
     6     3     4    2
     7     3    25    1
     8     4     5    1
     9     4    13    1
    10     5     6    2
    11     5     7    1
    12     6    26    1
    13     7    12    1
    14     7     8    2
    15     8     9    1
    16     8    27    1
    17     9    10    2
    18    10    28    1
    19    10    11    1
    20    11    12    2
    21    12    29    1
    22    14    15    2
    23    14    19    1
    24    14    37    1
    25    15    30    1
    26    15    16    1
    27    16    17    2
    28    16    31    1
    29    17    18    1
    30    18    19    2
    31    18    20    1
    32    19    32    1
    33    20    22    1
    34    20    21    1
    35    20    23    1
    36    33    42    1
    37    33    34    1
    38    33    37    1
    39    34    43    1
    40    34    44    1
    41    34    35    1
    42    35    38    1
    43    35    36    2
    44    36    37    1
    45    36    41    1
    46    38    39    1
    47    38    40    1
    48    42    46    2
    49    42    45    1
    50    45    49    1
    51    45    47    1
    52    45    48    1
