@<TRIPOS>MOLECULE
lig
  46   49 0 0 0
SMALL
NO_CHARGES


@<TRIPOS>ATOM
      1 C_00          5.8028    1.2854  -21.3066 c4      1  lig       0.071713
      2 C_01          6.5946    0.8726  -22.3924 c5      1  lig      -0.130297
      3 C_02          6.8642   -0.4769  -22.6108 c6      1  lig      -0.277046
      4 C_03          6.3591   -1.4410  -21.7455 c7      1  lig       0.397333
      5 C_04          5.5709   -1.0674  -20.6511 c8      1  lig      -0.224189
      6 C_05          5.2882    0.2909  -20.4592 c9      1  lig      -0.095828
      7 C_06          5.0848   -2.0824  -19.6808 cb      1  lig      -0.154513
      8 C_07          5.9730   -2.9228  -19.0014 ci      1  lig       0.393523
      9 N_08          5.5659   -3.8354  -18.0828 n0      1  lig      -0.714822
     10 C_09          4.2322   -3.9063  -17.8524 cj      1  lig       0.731264
     11 N_0a          3.2842   -3.1559  -18.4679 ng      1  lig      -0.732561
     12 C_0b          3.7288   -2.2496  -19.3802 ck      1  lig       0.416082
     13 F_0c          6.6453   -2.7450  -21.9632 f0      1  lig      -0.191524
     14 C_0d          5.8829    3.7001  -22.2221 cm      1  lig       0.013652
     15 C_0e          7.0797    4.4352  -22.2973 cn      1  lig      -0.131724
     16 C_0f          7.3424    5.2025  -23.4320 co      1  lig       0.182468
     17 N_0g          6.4868    5.2791  -24.4829 nr      1  lig      -0.461197
     18 C_0h          5.3235    4.5702  -24.4207 cq      1  lig       0.367115
     19 C_0i          4.9978    3.7818  -23.3104 cr      1  lig      -0.243265
     20 C_0j          4.3918    4.6788  -25.6356 cs      1  lig       0.335860
     21 F_0k          5.0077    4.2361  -26.7299 f1      1  lig      -0.128230
     22 F_0l          3.2753    3.9662  -25.4904 f2      1  lig      -0.145023
     23 F_0m          4.0549    5.9552  -25.8297 f3      1  lig      -0.137737
     24 H_0n          7.0255    1.5879  -23.0777 h0      1  lig       0.205067
     25 H_0o          7.4692   -0.7827  -23.4520 h6      1  lig       0.200827
     26 H_0p          4.6991    0.5874  -19.6074 h7      1  lig       0.096533
     27 H_0q          7.0392   -2.8592  -19.1813 h8      1  lig       0.105381
     28 H_0r          3.8998   -4.6184  -17.1065 h9      1  lig       0.032281
     29 H_0s          2.9794   -1.6383  -19.8673 hb      1  lig       0.056018
     30 H_0t          7.8151    4.3991  -21.5057 hd      1  lig       0.133129
     31 H_0u          8.2650    5.7631  -23.5113 he      1  lig       0.127326
     32 H_0v          4.0711    3.2235  -23.3001 hf      1  lig       0.126485
     33 N_0w          6.3278    3.1207  -19.8504 nw      1  lig      -0.470597
     34 C_0x          5.5345    3.4951  -18.9212 ct      1  lig       0.683327
     35 C_0y          4.1122    3.4874  -19.3530 cw      1  lig       0.355722
     36 N_0z          4.1558    3.0472  -20.5922 nA      1  lig      -0.262392
     37 C_10          5.5295    2.7878  -21.0167 cA      1  lig       0.054654
     38 N_11          3.0009    3.8253  -18.7075 nB      1  lig      -0.756341
     39 H_12          2.9257    4.1037  -17.7211 hg      1  lig       0.443878
     40 H_13          2.0879    3.7708  -19.2052 hh      1  lig       0.443878
     41 H_14          3.3150    3.0245  -21.1905 hi      1  lig       0.364611
     42 O_15          5.8579    3.8869  -17.6410 o0      1  lig      -0.371492
     43 C_16          7.2438    3.8340  -17.2859 cB      1  lig      -0.130327
     44 H_17          7.6555    2.8251  -17.3642 hj      1  lig       0.140326
     45 H_18          7.8538    4.5059  -17.8939 hk      1  lig       0.140326
     46 H_19          7.3615    4.1455  -16.2479 hl      1  lig       0.140326
@<TRIPOS>BOND
     1     1     6    1
     2     1     2    2
     3    37     1    1
     4     2     3    1
     5     2    24    1
     6     3     4    2
     7     3    25    1
     8     4     5    1
     9     4    13    1
    10     5     6    2
    11     5     7    1
    12     6    26    1
    13     7    12    1
    14     7     8    2
    15     8     9    1
    16     8    27    1
    17     9    10    2
    18    10    28    1
    19    10    11    1
    20    11    12    2
    21    12    29    1
    22    14    15    2
    23    14    19    1
    24    14    37    1
    25    15    30    1
    26    15    16    1
    27    16    17    2
    28    16    31    1
    29    17    18    1
    30    18    19    2
    31    18    20    1
    32    19    32    1
    33    20    22    1
    34    20    21    1
    35    20    23    1
    36    33    34    2
    37    33    37    1
    38    34    42    1
    39    34    35    1
    40    35    38    1
    41    35    36    2
    42    36    37    1
    43    36    41    1
    44    38    39    1
    45    38    40    1
    46    42    43    1
    47    43    46    1
    48    43    44    1
    49    43    45    1
