@<TRIPOS>MOLECULE
lig
  46   49 0 0 0
SMALL
NO_CHARGES


@<TRIPOS>ATOM
      1 C_00          5.8057    1.2882  -21.3221 c4      1  lig       0.058804
      2 C_01          6.5939    0.8712  -22.4087 c5      1  lig      -0.194041
      3 C_02          6.8622   -0.4791  -22.6229 c6      1  lig      -0.215181
      4 C_03          6.3588   -1.4396  -21.7527 c7      1  lig       0.368698
      5 C_04          5.5745   -1.0618  -20.6569 c8      1  lig      -0.217138
      6 C_05          5.2939    0.2975  -20.4683 c9      1  lig      -0.057415
      7 C_06          5.0907   -2.0749  -19.6836 cb      1  lig      -0.164439
      8 C_07          5.9803   -2.9147  -19.0055 ci      1  lig       0.396590
      9 N_08          5.5750   -3.8283  -18.0870 n0      1  lig      -0.715937
     10 C_09          4.2416   -3.9008  -17.8555 cj      1  lig       0.732629
     11 N_0a          3.2923   -3.1507  -18.4693 ng      1  lig      -0.734347
     12 C_0b          3.7352   -2.2430  -19.3812 ck      1  lig       0.422036
     13 F_0c          6.6430   -2.7447  -21.9671 f0      1  lig      -0.188301
     14 C_0d          5.8812    3.7011  -22.2477 cm      1  lig      -0.021600
     15 C_0e          7.0773    4.4365  -22.3313 cn      1  lig      -0.171055
     16 C_0f          7.3323    5.2046  -23.4669 co      1  lig       0.222773
     17 N_0g          6.4691    5.2817  -24.5113 nr      1  lig      -0.464921
     18 C_0h          5.3069    4.5717  -24.4414 cq      1  lig       0.338304
     19 C_0i          4.9885    3.7826  -23.3293 cr      1  lig      -0.187662
     20 C_0j          4.3678    4.6803  -25.6499 cs      1  lig       0.349496
     21 F_0k          4.9830    4.2542  -26.7513 f1      1  lig      -0.128612
     22 F_0l          3.2600    3.9545  -25.5051 f2      1  lig      -0.151911
     23 F_0m          4.0170    5.9547  -25.8306 f3      1  lig      -0.139895
     24 H_0n          7.0226    1.5847  -23.0971 h0      1  lig       0.217904
     25 H_0o          7.4643   -0.7883  -23.4648 h6      1  lig       0.188377
     26 H_0p          4.7098    0.5998  -19.6145 h7      1  lig       0.080123
     27 H_0q          7.0461   -2.8502  -19.1873 h8      1  lig       0.104856
     28 H_0r          3.9105   -4.6143  -17.1102 h9      1  lig       0.031786
     29 H_0s          2.9850   -1.6316  -19.8672 hb      1  lig       0.055255
     30 H_0t          7.8168    4.4012  -21.5436 hd      1  lig       0.148927
     31 H_0u          8.2539    5.7658  -23.5515 he      1  lig       0.115661
     32 H_0v          4.0618    3.2248  -23.3109 hf      1  lig       0.129327
     33 N_0w          6.3446    3.1304  -19.8806 nw      1  lig      -0.250394
     34 C_0x          5.5650    3.5132  -18.9490 ct      1  lig       0.281505
     35 C_0y          4.1350    3.5001  -19.3597 cw      1  lig       0.409805
     36 N_0z          4.1668    3.0554  -20.5980 nA      1  lig      -0.143949
     37 C_10          5.5356    2.7922  -21.0371 cA      1  lig      -0.009003
     38 N_11          3.0287    3.8355  -18.7061 nB      1  lig      -0.857357
     39 H_12          2.1138    3.7744  -19.1969 hg      1  lig       0.478407
     40 H_13          2.9634    4.1160  -17.7207 hh      1  lig       0.478407
     41 H_14          3.3200    3.0291  -21.1868 hi      1  lig       0.315029
     42 S_15          6.0297    4.0440  -17.2890 s0      1  lig      -0.123741
     43 C_16          7.8355    3.8030  -17.3655 cB      1  lig      -0.144608
     44 H_17          8.2957    4.0684  -16.4147 hj      1  lig       0.118936
     45 H_18          8.0862    2.7633  -17.5761 hk      1  lig       0.118936
     46 H_19          8.2852    4.4249  -18.1393 hl      1  lig       0.118936
@<TRIPOS>BOND
     1     1     6    1
     2     1     2    2
     3    37     1    1
     4     2     3    1
     5     2    24    1
     6     3     4    2
     7     3    25    1
     8     4     5    1
     9     4    13    1
    10     5     6    2
    11     5     7    1
    12     6    26    1
    13     7    12    1
    14     7     8    2
    15     8     9    1
    16     8    27    1
    17     9    10    2
    18    10    28    1
    19    10    11    1
    20    11    12    2
    21    12    29    1
    22    14    15    2
    23    14    19    1
    24    14    37    1
    25    15    30    1
    26    15    16    1
    27    16    17    2
    28    16    31    1
    29    17    18    1
    30    18    19    2
    31    18    20    1
    32    19    32    1
    33    20    22    1
    34    20    21    1
    35    20    23    1
    36    33    34    2
    37    33    37    1
    38    34    42    1
    39    34    35    1
    40    35    38    1
    41    35    36    2
    42    36    37    1
    43    36    41    1
    44    38    40    1
    45    38    39    1
    46    42    43    1
    47    43    44    1
    48    43    45    1
    49    43    46    1
