@<TRIPOS>MOLECULE
lig
  51   54 0 0 0
SMALL
NO_CHARGES


@<TRIPOS>ATOM
      1 C_00          5.8275    1.3495  -21.2780 c4      1  lig       0.068011
      2 C_01          6.6017    0.9355  -22.3763 c5      1  lig      -0.160438
      3 C_02          6.8758   -0.4131  -22.5939 c6      1  lig      -0.242626
      4 C_03          6.3908   -1.3759  -21.7163 c7      1  lig       0.380676
      5 C_04          5.6224   -1.0020  -20.6083 c8      1  lig      -0.231483
      6 C_05          5.3391    0.3563  -20.4131 c9      1  lig      -0.054071
      7 C_06          5.1524   -2.0218  -19.6356 cb      1  lig      -0.151897
      8 C_07          6.0547   -2.8342  -18.9413 ci      1  lig       0.392736
      9 N_08          5.6602   -3.7592  -18.0292 n0      1  lig      -0.715624
     10 C_09          4.3253   -3.8718  -17.8221 cj      1  lig       0.732762
     11 N_0a          3.3653   -3.1503  -18.4535 ng      1  lig      -0.734654
     12 C_0b          3.7972   -2.2297  -19.3578 ck      1  lig       0.414571
     13 F_0c          6.6750   -2.6801  -21.9374 f0      1  lig      -0.189320
     14 C_0d          5.8785    3.7575  -22.2157 cm      1  lig      -0.006714
     15 C_0e          7.0682    4.5030  -22.2969 cn      1  lig      -0.147281
     16 C_0f          7.3263    5.2596  -23.4398 co      1  lig       0.189748
     17 N_0g          6.4721    5.3163  -24.4931 nr      1  lig      -0.462260
     18 C_0h          5.3146    4.5984  -24.4238 cq      1  lig       0.361933
     19 C_0i          4.9938    3.8198  -23.3053 cr      1  lig      -0.221507
     20 C_0j          4.3829    4.6858  -25.6400 cs      1  lig       0.347335
     21 F_0k          5.0063    4.2461  -26.7314 f1      1  lig      -0.130254
     22 F_0l          3.2767    3.9581  -25.4927 f2      1  lig      -0.149514
     23 F_0m          4.0286    5.9562  -25.8411 f3      1  lig      -0.140881
     24 H_0n          7.0121    1.6497  -23.0749 h0      1  lig       0.214674
     25 H_0o          7.4656   -0.7197  -23.4454 h6      1  lig       0.193946
     26 H_0p          4.7651    0.6565  -19.5517 h7      1  lig       0.072298
     27 H_0q          7.1208   -2.7390  -19.1062 h8      1  lig       0.106327
     28 H_0r          4.0017   -4.5944  -17.0824 h9      1  lig       0.031970
     29 H_0s          3.0382   -1.6417  -19.8586 hb      1  lig       0.059826
     30 H_0t          7.8008    4.4818  -21.5023 hd      1  lig       0.147960
     31 H_0u          8.2441    5.8271  -23.5234 he      1  lig       0.126158
     32 H_0v          4.0721    3.2536  -23.2881 hf      1  lig       0.130302
     33 N_0w          6.3151    3.2187  -19.8364 nw      1  lig      -0.352422
     34 C_0x          5.5409    3.6145  -18.8966 ct      1  lig       0.362959
     35 C_0y          4.1222    3.5520  -19.3500 cw      1  lig       0.390726
     36 N_0z          4.1648    3.0947  -20.5813 nA      1  lig      -0.197382
     37 C_10          5.5351    2.8520  -21.0023 cA      1  lig       0.000075
     38 N_11          3.0013    3.8663  -18.7132 nB      1  lig      -0.835176
     39 H_12          2.9105    4.1507  -17.7294 hg      1  lig       0.456748
     40 H_13          2.0939    3.7869  -19.2168 hh      1  lig       0.456748
     41 H_14          3.3224    3.0512  -21.1755 hi      1  lig       0.342458
     42 C_15          5.9601    4.1044  -17.5075 cB      1  lig       0.105195
     43 C_16          7.4232    3.7421  -17.1578 cC      1  lig      -0.230648
     44 H_17          8.1361    4.2174  -17.8339 hj      1  lig       0.081810
     45 H_18          7.6763    4.0591  -16.1455 hk      1  lig       0.081810
     46 H_19          7.5938    2.6653  -17.2054 hl      1  lig       0.081810
     47 H_1a          5.3078    3.6105  -16.7848 hm      1  lig       0.019211
     48 C_1b          5.7194    5.6230  -17.3830 cD      1  lig      -0.217509
     49 H_1c          4.6720    5.8838  -17.5485 hq      1  lig       0.073626
     50 H_1d          5.9750    5.9793  -16.3844 hr      1  lig       0.073626
     51 H_1e          6.3186    6.1919  -18.0958 ht      1  lig       0.073626
@<TRIPOS>BOND
     1     1     6    1
     2     1     2    2
     3    37     1    1
     4     2     3    1
     5     2    24    1
     6     3     4    2
     7     3    25    1
     8     4     5    1
     9     4    13    1
    10     5     6    2
    11     5     7    1
    12     6    26    1
    13     7    12    1
    14     7     8    2
    15     8     9    1
    16     8    27    1
    17     9    10    2
    18    10    28    1
    19    10    11    1
    20    11    12    2
    21    12    29    1
    22    14    15    2
    23    14    19    1
    24    14    37    1
    25    15    30    1
    26    15    16    1
    27    16    17    2
    28    16    31    1
    29    17    18    1
    30    18    19    2
    31    18    20    1
    32    19    32    1
    33    20    22    1
    34    20    21    1
    35    20    23    1
    36    33    34    2
    37    33    37    1
    38    34    42    1
    39    34    35    1
    40    35    38    1
    41    35    36    2
    42    36    37    1
    43    36    41    1
    44    38    39    1
    45    38    40    1
    46    42    47    1
    47    42    48    1
    48    42    43    1
    49    43    45    1
    50    43    44    1
    51    43    46    1
    52    48    49    1
    53    48    50    1
    54    48    51    1
