@<TRIPOS>MOLECULE
lig
  43   46 0 0 0
SMALL
NO_CHARGES


@<TRIPOS>ATOM
      1 C_00          5.8078    1.3214  -21.2996 c4      1  lig       0.048749
      2 C_01          6.6317    0.9179  -22.3639 c5      1  lig      -0.128829
      3 C_02          6.8993   -0.4306  -22.5906 c6      1  lig      -0.277948
      4 C_03          6.3635   -1.4015  -21.7514 c7      1  lig       0.397743
      5 C_04          5.5435   -1.0364  -20.6771 c8      1  lig      -0.202554
      6 C_05          5.2564    0.3209  -20.4834 c9      1  lig      -0.132921
      7 C_06          5.0316   -2.0584  -19.7259 cb      1  lig      -0.149665
      8 C_07          5.8993   -2.9289  -19.0576 ci      1  lig       0.379137
      9 N_08          5.4701   -3.8479  -18.1557 n0      1  lig      -0.707432
     10 C_09          4.1351   -3.8928  -17.9282 cj      1  lig       0.740899
     11 N_0a          3.2054   -3.1103  -18.5318 ng      1  lig      -0.736916
     12 C_0b          3.6718   -2.1998  -19.4293 ck      1  lig       0.414889
     13 F_0c          6.6522   -2.7042  -21.9744 f0      1  lig      -0.185589
     14 C_0d          5.8500    3.7343  -22.2193 cm      1  lig       0.016805
     15 C_0e          6.9944    4.5488  -22.2674 cn      1  lig      -0.166697
     16 C_0f          7.2342    5.3258  -23.4010 co      1  lig       0.215826
     17 N_0g          6.3977    5.3463  -24.4696 nr      1  lig      -0.446620
     18 C_0h          5.2751    4.5732  -24.4238 cq      1  lig       0.287558
     19 C_0i          4.9777    3.7649  -23.3196 cr      1  lig      -0.162866
     20 C_0j          4.3518    4.6404  -25.6466 cs      1  lig       0.356187
     21 F_0k          4.9898    4.1988  -26.7287 f1      1  lig      -0.124652
     22 F_0l          3.2523    3.9028  -25.4986 f2      1  lig      -0.150977
     23 F_0m          3.9834    5.9044  -25.8611 f3      1  lig      -0.133918
     24 H_0n          7.0863    1.6406  -23.0263 h0      1  lig       0.188589
     25 H_0o          7.5286   -0.7305  -23.4158 h6      1  lig       0.206135
     26 H_0p          4.6384    0.6103  -19.6502 h7      1  lig       0.108034
     27 H_0q          6.9673   -2.8854  -19.2323 h8      1  lig       0.108130
     28 H_0r          3.7866   -4.6122  -17.1962 h9      1  lig       0.032546
     29 H_0s          2.9372   -1.5639  -19.9072 hb      1  lig       0.066225
     30 H_0t          7.7109    4.5703  -21.4593 hd      1  lig       0.118397
     31 H_0u          8.1205    5.9441  -23.4630 he      1  lig       0.123488
     32 H_0v          4.0832    3.1562  -23.3197 hf      1  lig       0.128054
     33 N_0w          6.2499    3.1881  -19.8074 nw      1  lig      -0.318758
     34 C_0x          5.4635    3.5701  -18.7947 ct      1  lig       0.508138
     35 C_0y          4.1014    3.5048  -19.3259 cw      1  lig       0.556417
     36 N_0z          4.1620    3.0713  -20.5716 nA      1  lig      -0.354131
     37 C_10          5.5283    2.8189  -21.0142 cA      1  lig       0.016398
     38 N_11          2.9783    3.8205  -18.6897 nB      1  lig      -0.796387
     39 H_12          2.0726    3.7569  -19.2009 hg      1  lig       0.452920
     40 H_13          2.8901    4.1090  -17.7073 hh      1  lig       0.452920
     41 H_14          3.3219    3.0595  -21.1719 hi      1  lig       0.381255
     42 O_15          5.8299    3.9124  -17.6709 o0      1  lig      -0.475262
     43 H_16          7.2519    3.1212  -19.7275 hj      1  lig       0.346683
@<TRIPOS>BOND
     1     1     6    1
     2     1     2    2
     3    37     1    1
     4     2     3    1
     5     2    24    1
     6     3     4    2
     7     3    25    1
     8     4     5    1
     9     4    13    1
    10     5     6    2
    11     5     7    1
    12     6    26    1
    13     7    12    1
    14     7     8    2
    15     8     9    1
    16     8    27    1
    17     9    10    2
    18    10    28    1
    19    10    11    1
    20    11    12    2
    21    12    29    1
    22    14    15    2
    23    14    19    1
    24    14    37    1
    25    15    30    1
    26    15    16    1
    27    16    17    2
    28    16    31    1
    29    17    18    1
    30    18    19    2
    31    18    20    1
    32    19    32    1
    33    20    22    1
    34    20    21    1
    35    20    23    1
    36    33    43    1
    37    33    34    1
    38    33    37    1
    39    34    42    2
    40    34    35    1
    41    35    38    1
    42    35    36    2
    43    36    37    1
    44    36    41    1
    45    38    40    1
    46    38    39    1
