@<TRIPOS>MOLECULE
lig
  46   49 0 0 0
SMALL
NO_CHARGES


@<TRIPOS>ATOM
      1 C_00          5.8087    1.3033  -21.2931 c4      1  lig       0.082679
      2 C_01          6.6190    0.8945  -22.3667 c5      1  lig      -0.170312
      3 C_02          6.8767   -0.4554  -22.5965 c6      1  lig      -0.244004
      4 C_03          6.3475   -1.4234  -21.7501 c7      1  lig       0.383684
      5 C_04          5.5454   -1.0538  -20.6642 c8      1  lig      -0.244098
      6 C_05          5.2705    0.3050  -20.4643 c9      1  lig      -0.079869
      7 C_06          5.0391   -2.0732  -19.7082 cb      1  lig      -0.134136
      8 C_07          5.9102   -2.9417  -19.0420 ci      1  lig       0.377680
      9 N_08          5.4855   -3.8584  -18.1356 n0      1  lig      -0.711106
     10 C_09          4.1514   -3.9034  -17.9025 cj      1  lig       0.734433
     11 N_0a          3.2185   -3.1235  -18.5045 ng      1  lig      -0.738600
     12 C_0b          3.6806   -2.2146  -19.4057 ck      1  lig       0.413037
     13 F_0c          6.6260   -2.7276  -21.9769 f0      1  lig      -0.187436
     14 C_0d          5.8952    3.7281  -22.1947 cm      1  lig      -0.046592
     15 C_0e          7.0972    4.4521  -22.3190 cn      1  lig      -0.195208
     16 C_0f          7.3351    5.2000  -23.4715 co      1  lig       0.230497
     17 N_0g          6.4567    5.2613  -24.5027 nr      1  lig      -0.468353
     18 C_0h          5.2958    4.5541  -24.4029 cq      1  lig       0.321767
     19 C_0i          4.9910    3.7883  -23.2697 cr      1  lig      -0.168874
     20 C_0j          4.3497    4.6333  -25.6084 cs      1  lig       0.401231
     21 F_0k          4.9610    4.1807  -26.7020 f1      1  lig      -0.135492
     22 F_0l          3.2439    3.9104  -25.4400 f2      1  lig      -0.162987
     23 F_0m          3.9969    5.9024  -25.8208 f3      1  lig      -0.153476
     24 H_0n          7.0719    1.6134  -23.0343 h0      1  lig       0.209489
     25 H_0o          7.4940   -0.7585  -23.4295 h6      1  lig       0.198091
     26 H_0p          4.6663    0.5980  -19.6216 h7      1  lig       0.067062
     27 H_0q          6.9772   -2.8980  -19.2223 h8      1  lig       0.108253
     28 H_0r          3.8059   -4.6203  -17.1668 h9      1  lig       0.031727
     29 H_0s          2.9442   -1.5793  -19.8818 hb      1  lig       0.068135
     30 H_0t          7.8657    4.4308  -21.5599 hd      1  lig       0.157292
     31 H_0u          8.2589    5.7530  -23.5839 he      1  lig       0.121340
     32 H_0v          4.0655    3.2286  -23.2307 hf      1  lig       0.117314
     33 C_0w          6.3435    3.1741  -19.6895 ct      1  lig       0.372662
     34 N_0x          5.3315    3.6585  -18.7470 nw      1  lig       0.038316
     35 C_0y          4.1190    3.5756  -19.2918 cw      1  lig       0.348381
     36 N_0z          4.2080    3.0828  -20.5124 nA      1  lig      -0.190633
     37 C_10          5.5711    2.8084  -20.9819 cA      1  lig      -0.014037
     38 N_11          2.9635    3.9287  -18.7563 nB      1  lig      -0.756192
     39 H_12          2.7700    4.0512  -17.7513 hg      1  lig       0.434618
     40 H_13          2.0936    3.8552  -19.3301 hh      1  lig       0.434618
     41 H_14          3.3688    3.0715  -21.1148 hi      1  lig       0.325470
     42 O_15          7.5551    3.0777  -19.4646 o0      1  lig      -0.390356
     43 C_16          5.6392    4.0976  -17.3793 cB      1  lig      -0.074372
     44 H_17          4.8374    4.7466  -17.0268 hj      1  lig       0.096119
     45 H_18          5.7058    3.2192  -16.7382 hk      1  lig       0.096119
     46 H_19          6.5838    4.6407  -17.3707 hl      1  lig       0.096119
@<TRIPOS>BOND
     1     1     6    1
     2     1     2    2
     3    37     1    1
     4     2     3    1
     5     2    24    1
     6     3     4    2
     7     3    25    1
     8     4     5    1
     9     4    13    1
    10     5     6    2
    11     5     7    1
    12     6    26    1
    13     7    12    1
    14     7     8    2
    15     8     9    1
    16     8    27    1
    17     9    10    2
    18    10    28    1
    19    10    11    1
    20    11    12    2
    21    12    29    1
    22    14    15    2
    23    14    19    1
    24    14    37    1
    25    15    30    1
    26    15    16    1
    27    16    17    2
    28    16    31    1
    29    17    18    1
    30    18    19    2
    31    18    20    1
    32    19    32    1
    33    20    22    1
    34    20    21    1
    35    20    23    1
    36    33    42    2
    37    33    34    1
    38    33    37    1
    39    34    43    1
    40    34    35    1
    41    35    38    2
    42    35    36    1
    43    36    37    1
    44    36    41    1
    45    38    39    1
    46    38    40    1
    47    43    46    1
    48    43    44    1
    49    43    45    1
