@<TRIPOS>MOLECULE
lig
  45   48 0 0 0
SMALL
NO_CHARGES


@<TRIPOS>ATOM
      1 C_00          5.8773    1.3199  -21.2842 c4      1  lig       0.034434
      2 C_01          6.6903    0.8916  -22.3484 c5      1  lig      -0.136273
      3 C_02          6.9413   -0.4613  -22.5635 c6      1  lig      -0.267606
      4 C_03          6.4025   -1.4162  -21.7095 c7      1  lig       0.385968
      5 C_04          5.5974   -1.0296  -20.6320 c8      1  lig      -0.261739
      6 C_05          5.3295    0.3339  -20.4470 c9      1  lig      -0.048192
      7 C_06          5.0760   -2.0418  -19.6766 cb      1  lig      -0.118288
      8 C_07          5.9378   -2.9022  -18.9883 ci      1  lig       0.374735
      9 N_08          5.4990   -3.8216  -18.0914 n0      1  lig      -0.708419
     10 C_09          4.1599   -3.8780  -17.8911 cj      1  lig       0.736609
     11 N_0a          3.2357   -3.1053  -18.5154 ng      1  lig      -0.736328
     12 C_0b          3.7119   -2.1931  -19.4063 ck      1  lig       0.389133
     13 F_0c          6.6723   -2.7248  -21.9227 f0      1  lig      -0.185741
     14 C_0d          5.9271    3.6939  -22.2658 cm      1  lig      -0.028139
     15 C_0e          7.1581    4.3524  -22.4246 cn      1  lig      -0.158369
     16 C_0f          7.3936    5.0992  -23.5773 co      1  lig       0.208096
     17 N_0g          6.4829    5.2133  -24.5756 nr      1  lig      -0.464720
     18 C_0h          5.2952    4.5562  -24.4452 cq      1  lig       0.316228
     19 C_0i          4.9883    3.8011  -23.3054 cr      1  lig      -0.163635
     20 C_0j          4.3233    4.6762  -25.6262 cs      1  lig       0.385624
     21 F_0k          4.9056    4.2508  -26.7466 f1      1  lig      -0.133373
     22 F_0l          3.2157    3.9565  -25.4539 f2      1  lig      -0.163990
     23 F_0m          3.9773    5.9539  -25.7941 f3      1  lig      -0.146037
     24 H_0n          7.1482    1.5975  -23.0255 h0      1  lig       0.185725
     25 H_0o          7.5594   -0.7759  -23.3915 h6      1  lig       0.201930
     26 H_0p          4.7123    0.6340  -19.6169 h7      1  lig       0.070301
     27 H_0q          7.0082   -2.8519  -19.1460 h8      1  lig       0.103879
     28 H_0r          3.8030   -4.5993  -17.1651 h9      1  lig       0.031045
     29 H_0s          2.9821   -1.5657  -19.9025 hb      1  lig       0.081158
     30 H_0t          7.9412    4.2754  -21.6837 hd      1  lig       0.124046
     31 H_0u          8.3390    5.6077  -23.7162 he      1  lig       0.123787
     32 H_0v          4.0395    3.2858  -23.2389 hf      1  lig       0.118845
     33 C_0w          6.3650    3.3118  -19.7397 ct      1  lig      -0.097759
     34 C_0x          5.3922    3.2003  -18.5661 cw      1  lig      -0.049943
     35 C_0y          4.0936    3.3580  -19.2618 cA      1  lig       0.528360
     36 N_0z          4.2468    3.0903  -20.5542 nw      1  lig      -0.322362
     37 C_10          5.6275    2.8311  -21.0141 cB      1  lig      -0.017632
     38 N_11          2.9450    3.7030  -18.7132 nA      1  lig      -0.827925
     39 H_12          2.0836    3.7319  -19.2998 hg      1  lig       0.445810
     40 H_13          2.7711    3.8909  -17.7184 hh      1  lig       0.445810
     41 H_14          3.4299    3.1296  -21.1770 hi      1  lig       0.351209
     42 H_15          6.6257    4.3678  -19.8257 hj      1  lig       0.103946
     43 H_16          7.3007    2.7776  -19.5656 hk      1  lig       0.103946
     44 H_17          5.5250    3.9763  -17.8109 hl      1  lig       0.092923
     45 H_18          5.4172    2.2266  -18.0754 hm      1  lig       0.092923
@<TRIPOS>BOND
     1     1     6    1
     2     1     2    2
     3    37     1    1
     4     2     3    1
     5     2    24    1
     6     3     4    2
     7     3    25    1
     8     4     5    1
     9     4    13    1
    10     5     6    2
    11     5     7    1
    12     6    26    1
    13     7    12    1
    14     7     8    2
    15     8     9    1
    16     8    27    1
    17     9    10    2
    18    10    28    1
    19    10    11    1
    20    11    12    2
    21    12    29    1
    22    14    15    2
    23    14    19    1
    24    14    37    1
    25    15    30    1
    26    15    16    1
    27    16    17    2
    28    16    31    1
    29    17    18    1
    30    18    19    2
    31    18    20    1
    32    19    32    1
    33    20    22    1
    34    20    21    1
    35    20    23    1
    36    33    43    1
    37    33    34    1
    38    33    37    1
    39    33    42    1
    40    34    45    1
    41    34    44    1
    42    34    35    1
    43    35    38    1
    44    35    36    2
    45    36    37    1
    46    36    41    1
    47    38    40    1
    48    38    39    1
