@<TRIPOS>MOLECULE
lig
  43   46 0 0 0
SMALL
NO_CHARGES


@<TRIPOS>ATOM
      1 C_00          5.8288    1.3332  -21.2836 c4      1  lig       0.053701
      2 C_01          6.6057    0.9114  -22.3755 c5      1  lig      -0.314105
      3 C_02          6.8350   -0.4419  -22.6127 c6      1  lig      -0.152508
      4 C_03          6.3068   -1.4005  -21.7559 c7      1  lig       0.351393
      5 C_04          5.5375   -1.0177  -20.6510 c8      1  lig      -0.186604
      6 C_05          5.2930    0.3464  -20.4406 c9      1  lig      -0.069628
      7 C_06          5.0377   -2.0345  -19.6896 cb      1  lig      -0.194728
      8 C_07          5.9159   -2.8928  -19.0196 ci      1  lig       0.408764
      9 N_08          5.4976   -3.8152  -18.1158 n0      1  lig      -0.711147
     10 C_09          4.1627   -3.8768  -17.8901 cj      1  lig       0.729464
     11 N_0a          3.2237   -3.1072  -18.4962 ng      1  lig      -0.733736
     12 C_0b          3.6796   -2.1923  -19.3948 ck      1  lig       0.420429
     13 F_0c          6.5559   -2.7093  -21.9908 f0      1  lig      -0.184427
     14 C_0d          5.9120    3.7546  -22.1967 cm      1  lig       0.132083
     15 C_0e          7.0786    4.5303  -22.3206 cn      1  lig      -0.121991
     16 C_0f          7.2862    5.2833  -23.4750 co      1  lig       0.145571
     17 N_0g          6.4060    5.3048  -24.5062 nr      1  lig      -0.435226
     18 C_0h          5.2732    4.5531  -24.4017 cq      1  lig       0.295304
     19 C_0i          5.0008    3.7767  -23.2667 cr      1  lig      -0.171215
     20 C_0j          4.3214    4.5979  -25.6038 cs      1  lig       0.329565
     21 F_0k          4.9360    4.1344  -26.6912 f1      1  lig      -0.118065
     22 F_0l          3.2264    3.8640  -25.4169 f2      1  lig      -0.142013
     23 F_0m          3.9489    5.8576  -25.8381 f3      1  lig      -0.137002
     24 H_0n          7.0581    1.6250  -23.0489 h0      1  lig       0.239538
     25 H_0o          7.4284   -0.7547  -23.4595 h6      1  lig       0.181158
     26 H_0p          4.7197    0.6491  -19.5802 h7      1  lig       0.097999
     27 H_0q          6.9828   -2.8376  -19.1973 h8      1  lig       0.094653
     28 H_0r          3.8222   -4.5998  -17.1579 h9      1  lig       0.033937
     29 H_0s          2.9383   -1.5673  -19.8769 hb      1  lig       0.066775
     30 H_0t          7.8429    4.5406  -21.5576 hd      1  lig       0.076112
     31 H_0u          8.1862    5.8740  -23.5874 he      1  lig       0.141873
     32 H_0v          4.0993    3.1800  -23.2225 hf      1  lig       0.134610
     33 S_0w          6.6764    3.2604  -19.5241 s0      1  lig      -0.049032
     34 C_0x          5.3261    3.3390  -18.3374 ct      1  lig      -0.035941
     35 C_0y          4.1145    3.4400  -19.1814 cw      1  lig       0.490685
     36 N_0z          4.2854    3.1381  -20.4651 nw      1  lig      -0.403222
     37 C_10          5.6446    2.8400  -20.9728 cA      1  lig       0.011191
     38 N_11          2.9100    3.7253  -18.7276 nA      1  lig      -0.783796
     39 H_12          2.6557    3.9029  -17.7447 hg      1  lig       0.443735
     40 H_13          2.0849    3.7306  -19.3671 hh      1  lig       0.443735
     41 H_14          3.4736    3.1457  -21.0957 hi      1  lig       0.371217
     42 H_15          5.3895    4.1572  -17.6211 hj      1  lig       0.125447
     43 H_16          5.2929    2.3867  -17.8090 hk      1  lig       0.125447
@<TRIPOS>BOND
     1     1     6    1
     2     1     2    2
     3    37     1    1
     4     2     3    1
     5     2    24    1
     6     3     4    2
     7     3    25    1
     8     4     5    1
     9     4    13    1
    10     5     6    2
    11     5     7    1
    12     6    26    1
    13     7    12    1
    14     7     8    2
    15     8     9    1
    16     8    27    1
    17     9    10    2
    18    10    28    1
    19    10    11    1
    20    11    12    2
    21    12    29    1
    22    14    15    2
    23    14    19    1
    24    14    37    1
    25    15    30    1
    26    15    16    1
    27    16    17    2
    28    16    31    1
    29    17    18    1
    30    18    19    2
    31    18    20    1
    32    19    32    1
    33    20    22    1
    34    20    21    1
    35    20    23    1
    36    33    34    1
    37    33    37    1
    38    34    43    1
    39    34    35    1
    40    34    42    1
    41    35    38    1
    42    35    36    2
    43    36    37    1
    44    36    41    1
    45    38    39    1
    46    38    40    1
