@<TRIPOS>MOLECULE
lig
  49   52 0 0 0
SMALL
NO_CHARGES


@<TRIPOS>ATOM
      1 C_00          5.8530    1.2780  -21.3161 c4      1  lig       0.014901
      2 C_01          6.6903    0.8508  -22.3614 c5      1  lig      -0.139027
      3 C_02          6.9461   -0.5020  -22.5713 c6      1  lig      -0.264940
      4 C_03          6.3920   -1.4574  -21.7277 c7      1  lig       0.390477
      5 C_04          5.5620   -1.0715  -20.6688 c8      1  lig      -0.244365
      6 C_05          5.2826    0.2908  -20.4957 c9      1  lig      -0.078271
      7 C_06          5.0324   -2.0795  -19.7126 cb      1  lig      -0.131664
      8 C_07          5.8880   -2.9479  -19.0262 ci      1  lig       0.373873
      9 N_08          5.4445   -3.8570  -18.1214 n0      1  lig      -0.707664
     10 C_09          4.1068   -3.8945  -17.9098 cj      1  lig       0.739625
     11 N_0a          3.1877   -3.1136  -18.5314 ng      1  lig      -0.741081
     12 C_0b          3.6685   -2.2125  -19.4309 ck      1  lig       0.402653
     13 F_0c          6.6731   -2.7651  -21.9310 f0      1  lig      -0.186968
     14 C_0d          5.9088    3.6529  -22.2956 cm      1  lig      -0.026703
     15 C_0e          7.1425    4.3070  -22.4554 cn      1  lig      -0.167994
     16 C_0f          7.3761    5.0623  -23.6025 co      1  lig       0.214724
     17 N_0g          6.4609    5.1888  -24.5949 nr      1  lig      -0.463076
     18 C_0h          5.2712    4.5351  -24.4647 cq      1  lig       0.296836
     19 C_0i          4.9659    3.7715  -23.3299 cr      1  lig      -0.131641
     20 C_0j          4.2954    4.6692  -25.6408 cs      1  lig       0.375014
     21 F_0k          4.8748    4.2575  -26.7677 f1      1  lig      -0.127672
     22 F_0l          3.1889    3.9470  -25.4733 f2      1  lig      -0.165549
     23 F_0m          3.9488    5.9487  -25.7921 f3      1  lig      -0.142358
     24 H_0n          7.1652    1.5574  -23.0261 h0      1  lig       0.192239
     25 H_0o          7.5832   -0.8155  -23.3850 h6      1  lig       0.199599
     26 H_0p          4.6408    0.5855  -19.6833 h7      1  lig       0.078546
     27 H_0q          6.9580   -2.9112  -19.1898 h8      1  lig       0.101823
     28 H_0r          3.7468   -4.6074  -17.1770 h9      1  lig       0.030353
     29 H_0s          2.9427   -1.5774  -19.9232 hb      1  lig       0.082704
     30 H_0t          7.9286    4.2228  -21.7187 hd      1  lig       0.120720
     31 H_0u          8.3228    5.5686  -23.7413 he      1  lig       0.123183
     32 H_0v          4.0150    3.2606  -23.2630 hf      1  lig       0.127506
     33 C_0w          6.3688    3.2618  -19.7816 ct      1  lig      -0.114659
     34 C_0x          5.4202    3.1104  -18.6006 cw      1  lig       0.108760
     35 C_0y          4.1031    3.3305  -19.2728 cA      1  lig       0.436310
     36 N_0z          4.2342    3.0587  -20.5691 nw      1  lig      -0.220829
     37 C_10          5.6101    2.7892  -21.0444 cB      1  lig      -0.077626
     38 N_11          2.9667    3.7301  -18.7190 nA      1  lig      -0.733540
     39 H_12          2.8245    3.9354  -17.7220 hg      1  lig       0.429502
     40 H_13          2.0958    3.7679  -19.2890 hh      1  lig       0.429502
     41 H_14          3.4151    3.1211  -21.1879 hi      1  lig       0.322816
     42 H_15          7.3122    2.7370  -19.6302 hj      1  lig       0.126582
     43 H_16          6.6066    4.3233  -19.8548 hk      1  lig       0.126582
     44 O_17          5.6604    4.1019  -17.6014 o0      1  lig      -0.363908
     45 H_18          5.4230    2.1097  -18.1600 hl      1  lig       0.124989
     46 C_19          6.7087    3.7755  -16.6939 cC      1  lig       0.001257
     47 H_1a          6.8260    4.5783  -15.9657 hm      1  lig       0.086153
     48 H_1b          6.4906    2.8612  -16.1392 hq      1  lig       0.086153
     49 H_1c          7.6651    3.6513  -17.2048 hr      1  lig       0.086153
@<TRIPOS>BOND
     1     1     6    1
     2     1     2    2
     3    37     1    1
     4     2     3    1
     5     2    24    1
     6     3     4    2
     7     3    25    1
     8     4     5    1
     9     4    13    1
    10     5     6    2
    11     5     7    1
    12     6    26    1
    13     7    12    1
    14     7     8    2
    15     8     9    1
    16     8    27    1
    17     9    10    2
    18    10    28    1
    19    10    11    1
    20    11    12    2
    21    12    29    1
    22    14    15    2
    23    14    19    1
    24    14    37    1
    25    15    30    1
    26    15    16    1
    27    16    17    2
    28    16    31    1
    29    17    18    1
    30    18    19    2
    31    18    20    1
    32    19    32    1
    33    20    22    1
    34    20    21    1
    35    20    23    1
    36    33    42    1
    37    33    34    1
    38    33    37    1
    39    33    43    1
    40    34    45    1
    41    34    44    1
    42    34    35    1
    43    35    38    1
    44    35    36    2
    45    36    37    1
    46    36    41    1
    47    38    39    1
    48    38    40    1
    49    44    46    1
    50    46    48    1
    51    46    47    1
    52    46    49    1
