@<TRIPOS>MOLECULE
lig
  49   52 0 0 0
SMALL
NO_CHARGES


@<TRIPOS>ATOM
      1 C_00          5.8047    1.3250  -21.3567 c4      1  lig       0.034298
      2 C_01          6.6214    0.9095  -22.4213 c5      1  lig      -0.162075
      3 C_02          6.8598   -0.4433  -22.6547 c6      1  lig      -0.258532
      4 C_03          6.3057   -1.4063  -21.8184 c7      1  lig       0.380750
      5 C_04          5.4935   -1.0296  -20.7424 c8      1  lig      -0.208498
      6 C_05          5.2314    0.3327  -20.5444 c9      1  lig      -0.112809
      7 C_06          4.9768   -2.0459  -19.7875 cb      1  lig      -0.152171
      8 C_07          5.8409   -2.9234  -19.1235 ci      1  lig       0.386314
      9 N_08          5.4101   -3.8387  -18.2182 n0      1  lig      -0.710468
     10 C_09          4.0763   -3.8725  -17.9827 cj      1  lig       0.729922
     11 N_0a          3.1496   -3.0828  -18.5814 ng      1  lig      -0.732439
     12 C_0b          3.6180   -2.1761  -19.4822 ck      1  lig       0.418810
     13 F_0c          6.5750   -2.7132  -22.0414 f0      1  lig      -0.189984
     14 C_0d          5.9319    3.7433  -22.2251 cm      1  lig       0.007136
     15 C_0e          7.1280    4.4722  -22.3367 cn      1  lig      -0.202901
     16 C_0f          7.3618    5.2341  -23.4815 co      1  lig       0.233016
     17 N_0g          6.4812    5.3068  -24.5110 nr      1  lig      -0.478249
     18 C_0h          5.3203    4.5981  -24.4166 cq      1  lig       0.353526
     19 C_0i          5.0197    3.8202  -23.2916 cr      1  lig      -0.227651
     20 C_0j          4.3670    4.6892  -25.6160 cs      1  lig       0.354508
     21 F_0k          4.9735    4.2593  -26.7212 f1      1  lig      -0.129127
     22 F_0l          3.2673    3.9550  -25.4538 f2      1  lig      -0.150014
     23 F_0m          4.0032    5.9590  -25.8049 f3      1  lig      -0.141057
     24 H_0n          7.1008    1.6264  -23.0720 h0      1  lig       0.200794
     25 H_0o          7.4857   -0.7522  -23.4790 h6      1  lig       0.198360
     26 H_0p          4.6256    0.6323  -19.7040 h7      1  lig       0.103565
     27 H_0q          6.9080   -2.8883  -19.3053 h8      1  lig       0.105034
     28 H_0r          3.7269   -4.5899  -17.2488 h9      1  lig       0.032274
     29 H_0s          2.8867   -1.5330  -19.9554 hb      1  lig       0.054834
     30 H_0t          7.8966    4.4450  -21.5807 hd      1  lig       0.118080
     31 H_0u          8.2842    5.7902  -23.5887 he      1  lig       0.117204
     32 H_0v          4.0942    3.2606  -23.2540 hf      1  lig       0.124340
     33 C_0w          6.3682    3.1454  -19.6991 ct      1  lig      -0.070011
     34 C_0x          5.5530    4.2036  -18.9878 cw      1  lig       0.311932
     35 C_0y          4.1641    3.8164  -19.3999 cA      1  lig       0.358703
     36 N_0z          4.2490    3.1490  -20.5487 nw      1  lig      -0.237675
     37 C_10          5.6175    2.8276  -21.0150 cB      1  lig       0.004181
     38 N_11          3.0183    4.0362  -18.7667 nA      1  lig      -0.762744
     39 H_12          2.1171    3.8272  -19.2423 hg      1  lig       0.439942
     40 H_13          2.9250    4.3731  -17.8026 hh      1  lig       0.439942
     41 H_14          3.3974    2.9413  -21.0831 hi      1  lig       0.338576
     42 H_15          5.7742    5.2038  -19.3730 hj      1  lig       0.058553
     43 O_16          5.7495    4.1304  -17.5765 o0      1  lig      -0.398749
     44 H_17          6.3815    2.2682  -19.0511 hk      1  lig       0.087062
     45 H_18          7.4140    3.4166  -19.8138 hl      1  lig       0.087062
     46 C_19          5.4231    5.3292  -16.8800 cC      1  lig      -0.039605
     47 H_1a          4.4369    5.7137  -17.1414 hm      1  lig       0.095347
     48 H_1b          5.4311    5.1447  -15.8052 hq      1  lig       0.095347
     49 H_1c          6.1537    6.1126  -17.0869 hr      1  lig       0.095347
@<TRIPOS>BOND
     1     1     6    1
     2     1     2    2
     3    37     1    1
     4     2     3    1
     5     2    24    1
     6     3     4    2
     7     3    25    1
     8     4     5    1
     9     4    13    1
    10     5     6    2
    11     5     7    1
    12     6    26    1
    13     7    12    1
    14     7     8    2
    15     8     9    1
    16     8    27    1
    17     9    10    2
    18    10    28    1
    19    10    11    1
    20    11    12    2
    21    12    29    1
    22    14    15    2
    23    14    19    1
    24    14    37    1
    25    15    30    1
    26    15    16    1
    27    16    17    2
    28    16    31    1
    29    17    18    1
    30    18    19    2
    31    18    20    1
    32    19    32    1
    33    20    22    1
    34    20    21    1
    35    20    23    1
    36    33    44    1
    37    33    34    1
    38    33    37    1
    39    33    45    1
    40    34    42    1
    41    34    43    1
    42    34    35    1
    43    35    38    1
    44    35    36    2
    45    36    37    1
    46    36    41    1
    47    38    40    1
    48    38    39    1
    49    43    46    1
    50    46    48    1
    51    46    47    1
    52    46    49    1
