@<TRIPOS>MOLECULE
lig
  42   45 0 0 0
SMALL
NO_CHARGES


@<TRIPOS>ATOM
      1 C_00         11.7977   -2.3768    1.0760 c4      1  lig      -0.081646
      2 N_01         13.1459   -2.6842    0.5802 n0      1  lig      -0.011371
      3 C_02         14.2820   -2.6162    1.2890 c5      1  lig       0.445530
      4 N_03         14.3880   -2.3333    2.5929 ng      1  lig      -0.842734
      5 N_04         15.3451   -2.8870    0.5330 nr      1  lig      -0.341563
      6 C_05         15.0000   -3.2006   -0.8473 c6      1  lig      -0.034601
      7 C_06         15.5362   -2.1321   -1.8176 c7      1  lig       0.006259
      8 C_07         16.1095   -2.4879   -3.0612 c8      1  lig      -0.112385
      9 C_08         16.5405   -1.4924   -3.9515 c9      1  lig      -0.171979
     10 C_09         16.3829   -0.1350   -3.6257 cb      1  lig      -0.072726
     11 C_0a         15.8368    0.2631   -2.3866 ci      1  lig      -0.060951
     12 C_0b         15.6544    1.6970   -2.0542 cj      1  lig      -0.042628
     13 C_0c         15.2127    2.1200   -0.7816 ck      1  lig      -0.014180
     14 C_0d         15.1203    3.4931   -0.4934 cm      1  lig      -0.320422
     15 C_0e         15.4606    4.4145   -1.4945 cn      1  lig       0.284386
     16 N_0f         15.8427    4.0423   -2.7276 nw      1  lig      -0.546915
     17 C_0g         15.9326    2.7223   -2.9846 co      1  lig       0.253434
     18 C_0h         15.4332   -0.7556   -1.4907 cq      1  lig      -0.089550
     19 C_0i         15.5628   -4.6033   -1.1362 cr      1  lig      -0.167102
     20 C_0j         14.9337   -5.8832   -0.6203 cs      1  lig      -0.184137
     21 C_0k         14.9467   -5.5942   -2.1006 ct      1  lig      -0.184137
     22 C_0l         13.4637   -3.0777   -0.7576 cw      1  lig       0.464449
     23 O_0m         12.6273   -3.2367   -1.6520 o0      1  lig      -0.388394
     24 H_0n         11.6615   -1.2961    1.1107 h0      1  lig       0.094473
     25 H_0o         11.0248   -2.7976    0.4323 h6      1  lig       0.094473
     26 H_0p         11.6576   -2.7733    2.0815 h7      1  lig       0.094473
     27 H_0q         13.6132   -2.0582    3.1930 h8      1  lig       0.454108
     28 H_0r         16.3125   -2.8621    0.8622 h9      1  lig       0.373384
     29 H_0s         16.2237   -3.5177   -3.3675 hb      1  lig       0.133182
     30 H_0t         16.9793   -1.7687   -4.9004 hd      1  lig       0.173838
     31 H_0u         16.6906    0.6002   -4.3526 he      1  lig       0.144015
     32 H_0v         14.9814    1.4015   -0.0100 hf      1  lig       0.121071
     33 H_0w         14.8167    3.8387    0.4829 hg      1  lig       0.163669
     34 H_0x         15.4210    5.4767   -1.3017 hh      1  lig       0.093285
     35 H_0y         16.2303    2.4767   -3.9890 hi      1  lig       0.084009
     36 H_0z         14.9900   -0.4732   -0.5474 hj      1  lig       0.076507
     37 H_10         16.6502   -4.6083   -1.1158 hk      1  lig       0.175564
     38 H_11         13.9732   -5.8335   -0.1114 hl      1  lig       0.120801
     39 H_12         15.6051   -6.6610   -0.2611 hm      1  lig       0.120801
     40 H_13         13.9926   -5.3553   -2.5563 hq      1  lig       0.120801
     41 H_14         15.6238   -6.1725   -2.7271 hr      1  lig       0.120801
     42 H_15         15.3135   -2.3235    3.0234 ht      1  lig       0.454108
@<TRIPOS>BOND
     1     1     2    1
     2     1    24    1
     3     1    25    1
     4     1    26    1
     5     2     3    1
     6     2    22    1
     7     3     4    1
     8     3     5    2
     9     4    27    1
    10     4    42    1
    11     5     6    1
    12     5    28    1
    13     6     7    1
    14     6    19    1
    15     6    22    1
    16     7     8    2
    17     7    18    1
    18     8     9    1
    19     8    29    1
    20     9    10    2
    21     9    30    1
    22    10    11    1
    23    10    31    1
    24    11    12    1
    25    11    18    2
    26    12    13    2
    27    12    17    1
    28    13    14    1
    29    13    32    1
    30    14    15    2
    31    14    33    1
    32    15    16    1
    33    15    34    1
    34    16    17    2
    35    17    35    1
    36    18    36    1
    37    19    20    1
    38    19    21    1
    39    19    37    1
    40    20    21    1
    41    20    38    1
    42    20    39    1
    43    21    40    1
    44    21    41    1
    45    22    23    2
