@<TRIPOS>MOLECULE
lig
  42   45 0 0 0
SMALL
NO_CHARGES


@<TRIPOS>ATOM
      1 C_00         11.7983   -2.3992    1.0873 c4      1  lig      -0.091971
      2 N_01         13.1443   -2.7114    0.5887 n0      1  lig       0.002084
      3 C_02         14.2829   -2.6375    1.2928 c5      1  lig       0.429850
      4 N_03         14.3925   -2.3414    2.5935 ng      1  lig      -0.844745
      5 N_04         15.3435   -2.9154    0.5357 nr      1  lig      -0.330644
      6 C_05         14.9934   -3.2409   -0.8409 c6      1  lig      -0.038638
      7 C_06         15.5293   -2.1817   -1.8225 c7      1  lig       0.008595
      8 C_07         16.1088   -2.5505   -3.0596 c8      1  lig      -0.097126
      9 C_08         16.5416   -1.5649   -3.9599 c9      1  lig      -0.175227
     10 C_09         16.3804   -0.2048   -3.6507 cb      1  lig      -0.072162
     11 C_0a         15.8269    0.2069   -2.4200 ci      1  lig      -0.053887
     12 C_0b         15.6415    1.6448   -2.1094 cj      1  lig      -0.070058
     13 C_0c         15.4595    2.6157   -3.1212 ck      1  lig       0.226424
     14 N_0d         15.2266    3.9242   -2.8892 nw      1  lig      -0.528869
     15 C_0e         15.1698    4.3401   -1.6094 cm      1  lig       0.209056
     16 C_0f         15.3731    3.4813   -0.5178 cn      1  lig       0.097259
     17 F_0g         15.3297    3.9442    0.7545 f0      1  lig      -0.182742
     18 C_0h         15.6171    2.1235   -0.7816 co      1  lig      -0.060019
     19 C_0i         15.4212   -0.8013   -1.5126 cq      1  lig      -0.084209
     20 C_0j         15.5511   -4.6479   -1.1200 cr      1  lig      -0.180624
     21 C_0k         14.9107   -5.9232   -0.6062 cs      1  lig      -0.181320
     22 C_0l         14.9367   -5.6375   -2.0871 ct      1  lig      -0.181320
     23 C_0m         13.4575   -3.1148   -0.7473 cw      1  lig       0.463779
     24 O_0n         12.6184   -3.2763   -1.6385 o0      1  lig      -0.389960
     25 H_0o         11.6583   -2.7981    2.0920 h0      1  lig       0.096612
     26 H_0p         11.6668   -1.3181    1.1257 h6      1  lig       0.096612
     27 H_0q         11.0222   -2.8146    0.4440 h7      1  lig       0.096612
     28 H_0r         13.6188   -2.0644    3.1944 h8      1  lig       0.457128
     29 H_0s         16.3119   -2.8865    0.8616 h9      1  lig       0.372195
     30 H_0t         16.2272   -3.5834   -3.3537 hb      1  lig       0.129566
     31 H_0u         16.9848   -1.8491   -4.9043 hd      1  lig       0.174861
     32 H_0v         16.6901    0.5209   -4.3861 he      1  lig       0.147534
     33 H_0w         15.4607    2.3332   -4.1627 hf      1  lig       0.096317
     34 H_0x         14.9602    5.3877   -1.4506 hg      1  lig       0.120451
     35 H_0y         15.7909    1.4551    0.0429 hh      1  lig       0.138382
     36 H_0z         14.9728   -0.5100   -0.5744 hi      1  lig       0.078111
     37 H_10         16.6384   -4.6589   -1.0912 hj      1  lig       0.178661
     38 H_11         15.5745   -6.7044   -0.2407 hk      1  lig       0.121576
     39 H_12         13.9463   -5.8678   -0.1054 hl      1  lig       0.121576
     40 H_13         13.9883   -5.3931   -2.5517 hm      1  lig       0.121576
     41 H_14         15.6154   -6.2214   -2.7067 hq      1  lig       0.121576
     42 H_15         15.3190   -2.3296    3.0221 hr      1  lig       0.457128
@<TRIPOS>BOND
     1     1     2    1
     2     1    25    1
     3     1    26    1
     4     1    27    1
     5     2     3    1
     6     2    23    1
     7     3     4    1
     8     3     5    2
     9     4    28    1
    10     4    42    1
    11     5     6    1
    12     5    29    1
    13     6     7    1
    14     6    20    1
    15     6    23    1
    16     7     8    2
    17     7    19    1
    18     8     9    1
    19     8    30    1
    20     9    10    2
    21     9    31    1
    22    10    11    1
    23    10    32    1
    24    11    12    1
    25    11    19    2
    26    12    13    2
    27    12    18    1
    28    13    14    1
    29    13    33    1
    30    14    15    2
    31    15    16    1
    32    15    34    1
    33    16    18    2
    34    16    17    1
    35    18    35    1
    36    19    36    1
    37    20    21    1
    38    20    22    1
    39    20    37    1
    40    21    22    1
    41    21    38    1
    42    21    39    1
    43    22    40    1
    44    22    41    1
    45    23    24    2
