@<TRIPOS>MOLECULE
lig
  44   47 0 0 0
SMALL
NO_CHARGES


@<TRIPOS>ATOM
      1 C_00         11.7113   -2.3112    1.2622 c4      1  lig      -0.087417
      2 N_01         13.0352   -2.6402    0.7179 n0      1  lig       0.006529
      3 C_02         14.2035   -2.6174    1.3751 c5      1  lig       0.370562
      4 N_03         14.3765   -2.3591    2.6742 ng      1  lig      -0.751367
      5 N_04         15.2269   -2.8949    0.5700 nr      1  lig      -0.236168
      6 C_05         14.8063   -3.2175   -0.7951 c6      1  lig      -0.070766
      7 C_06         15.1524   -4.6977   -1.0845 c7      1  lig      -0.064920
      8 C_07         14.3046   -5.5761   -1.8014 c8      1  lig      -0.101236
      9 C_08         14.6497   -6.9306   -1.9839 c9      1  lig      -0.145224
     10 C_09         15.8625   -7.4264   -1.4792 cb      1  lig      -0.090626
     11 C_0a         16.7308   -6.5656   -0.7973 ci      1  lig      -0.145224
     12 C_0b         16.3649   -5.2251   -0.5912 cj      1  lig      -0.101236
     13 C_0c         15.3844   -2.1979   -1.7957 ck      1  lig       0.128204
     14 C_0d         15.9241   -2.5916   -3.0422 cm      1  lig      -0.167817
     15 C_0e         16.3874   -1.6183   -3.9470 cn      1  lig      -0.156090
     16 C_0f         16.3038   -0.2493   -3.6280 co      1  lig      -0.016252
     17 C_0g         15.8001    0.1816   -2.3818 cq      1  lig      -0.222800
     18 C_0h         15.7084    1.6222   -2.0291 cr      1  lig       0.420967
     19 C_0i         15.7056    2.0785   -0.6865 cs      1  lig       0.103370
     20 N_0j         15.5288    3.3733   -0.3397 nw      1  lig      -0.456177
     21 C_0k         15.3497    4.2346   -1.3629 ct      1  lig       0.174400
     22 C_0l         15.3873    3.8092   -2.7078 cw      1  lig       0.061993
     23 N_0m         15.5688    2.5097   -3.0474 nA      1  lig      -0.419303
     24 C_0n         15.3588   -0.8146   -1.4792 cA      1  lig      -0.120696
     25 C_0o         13.2854   -2.9804   -0.6448 cB      1  lig       0.435624
     26 O_0p         12.4099   -3.0279   -1.5170 o0      1  lig      -0.406518
     27 H_0q         10.9248   -2.8724    0.7569 h0      1  lig       0.097251
     28 H_0r         11.6571   -2.5377    2.3265 h6      1  lig       0.097251
     29 H_0s         11.5141   -1.2490    1.1211 h7      1  lig       0.097251
     30 H_0t         15.3205   -2.3643    3.0635 h8      1  lig       0.426935
     31 H_0u         16.2054   -2.8992    0.8580 h9      1  lig       0.335544
     32 H_0v         13.3663   -5.2373   -2.2023 hb      1  lig       0.133906
     33 H_0w         13.9797   -7.5967   -2.5060 hd      1  lig       0.159345
     34 H_0x         16.1272   -8.4631   -1.5949 he      1  lig       0.154144
     35 H_0y         17.6704   -6.9318   -0.4070 hf      1  lig       0.159345
     36 H_0z         17.0276   -4.6014   -0.0205 hg      1  lig       0.133906
     37 H_10         15.9843   -3.6329   -3.3297 hh      1  lig       0.187847
     38 H_11         16.7976   -1.9165   -4.9021 hi      1  lig       0.163033
     39 H_12         16.6290    0.4808   -4.3551 hj      1  lig       0.132003
     40 H_13         15.8527    1.3926    0.1280 hk      1  lig       0.074795
     41 H_14         15.1811    5.2706   -1.1089 hl      1  lig       0.091329
     42 H_15         15.2465    4.5234   -3.5029 hm      1  lig       0.112195
     43 H_16         14.9460   -0.5019   -0.5323 hq      1  lig       0.075173
     44 H_17         13.6343   -2.0707    3.3097 hr      1  lig       0.426935
@<TRIPOS>BOND
     1     1     2    1
     2     1    27    1
     3     1    28    1
     4     1    29    1
     5     2     3    1
     6     2    25    1
     7     3     4    1
     8     3     5    2
     9     4    30    1
    10     4    44    1
    11     5     6    1
    12     5    31    1
    13     6     7    1
    14     6    13    1
    15     6    25    1
    16     7     8    2
    17     7    12    1
    18     8     9    1
    19     8    32    1
    20     9    10    2
    21     9    33    1
    22    10    11    1
    23    10    34    1
    24    11    12    2
    25    11    35    1
    26    12    36    1
    27    13    14    2
    28    13    24    1
    29    14    15    1
    30    14    37    1
    31    15    16    2
    32    15    38    1
    33    16    17    1
    34    16    39    1
    35    17    18    1
    36    17    24    2
    37    18    19    2
    38    18    23    1
    39    19    20    1
    40    19    40    1
    41    20    21    2
    42    21    22    1
    43    21    41    1
    44    22    23    2
    45    22    42    1
    46    24    43    1
    47    25    26    2
