@<TRIPOS>MOLECULE
lig
  43   46 0 0 0
SMALL
NO_CHARGES


@<TRIPOS>ATOM
      1 C_00         11.7268   -2.5836    1.3295 c4      1  lig      -0.061524
      2 N_01         13.0531   -2.6452    0.7063 n0      1  lig       0.058207
      3 C_02         14.2316   -2.5932    1.3460 c5      1  lig       0.410114
      4 N_03         14.4073   -2.4121    2.6584 ng      1  lig      -0.810442
      5 N_04         15.2573   -2.7748    0.5129 nr      1  lig      -0.349574
      6 C_05         14.8116   -3.0762   -0.8432 c6      1  lig      -0.043561
      7 C_06         15.3587   -2.0157   -1.8435 c7      1  lig       0.005667
      8 C_07         16.0195   -2.3189   -3.0601 c8      1  lig      -0.029858
      9 C_08         16.4383   -1.2952   -3.9239 c9      1  lig      -0.236927
     10 C_09         16.1807    0.0504   -3.6165 cb      1  lig      -0.060504
     11 C_0a         15.5427    0.4050   -2.4118 ci      1  lig      -0.021370
     12 C_0b         15.2156    1.8211   -2.1137 cj      1  lig      -0.013375
     13 C_0c         15.3567    2.3665   -0.8156 ck      1  lig      -0.047880
     14 C_0d         14.9849    3.7006   -0.5364 cm      1  lig      -0.075636
     15 Cl0e         15.1555    4.3443    1.0546 a0      1  lig      -0.068668
     16 C_0f         14.4606    4.5126   -1.5547 cn      1  lig       0.031932
     17 C_0g         14.3209    3.9933   -2.8516 co      1  lig      -0.075636
     18 Cl0h         13.6519    4.9766   -4.0966 a1      1  lig      -0.068668
     19 C_0i         14.7046    2.6647   -3.1281 cq      1  lig      -0.047880
     20 C_0j         15.1679   -0.6375   -1.5331 cr      1  lig      -0.080910
     21 C_0k         15.0322   -4.5979   -1.0297 cs      1  lig      -0.143696
     22 C_0l         14.8677   -5.3412   -2.3307 ct      1  lig      -0.211429
     23 C_0m         16.2127   -5.2990   -1.6572 cw      1  lig      -0.211429
     24 C_0n         13.2933   -2.8878   -0.6768 cA      1  lig       0.374228
     25 O_0o         12.4116   -2.9823   -1.5385 o0      1  lig      -0.398786
     26 H_0p         11.4700   -3.5572    1.7452 h0      1  lig       0.088693
     27 H_0q         11.7369   -1.8709    2.1445 h6      1  lig       0.088693
     28 H_0r         10.9529   -2.2895    0.6209 h7      1  lig       0.088693
     29 H_0s         13.6644   -2.1505    3.3042 h8      1  lig       0.444129
     30 H_0t         16.2403   -2.7836    0.7874 h9      1  lig       0.379410
     31 H_0u         16.2291   -3.3147   -3.3988 hb      1  lig       0.145876
     32 H_0v         16.9460   -1.5531   -4.8431 hd      1  lig       0.180311
     33 H_0w         16.4785    0.8091   -4.3260 he      1  lig       0.157597
     34 H_0x         15.7506    1.7585   -0.0167 hf      1  lig       0.125121
     35 H_0y         14.1590    5.5304   -1.3431 hg      1  lig       0.139686
     36 H_0z         14.5644    2.2798   -4.1277 hh      1  lig       0.125121
     37 H_10         14.6627   -0.3618   -0.6207 hi      1  lig       0.075115
     38 H_11         14.6222   -5.1529   -0.1846 hj      1  lig       0.164231
     39 H_12         14.3021   -6.2723   -2.3064 hk      1  lig       0.132700
     40 H_13         14.7452   -4.7530   -3.2261 hl      1  lig       0.132700
     41 H_14         16.9717   -4.7217   -2.1490 hm      1  lig       0.132700
     42 H_15         16.5741   -6.2027   -1.1702 hq      1  lig       0.132700
     43 H_16         15.3568   -2.4023    3.0357 hr      1  lig       0.444129
@<TRIPOS>BOND
     1     1     2    1
     2     1    26    1
     3     1    27    1
     4     1    28    1
     5     2     3    1
     6     2    24    1
     7     3     4    1
     8     3     5    2
     9     4    29    1
    10     4    43    1
    11     5     6    1
    12     5    30    1
    13     6     7    1
    14     6    21    1
    15     6    24    1
    16     7     8    2
    17     7    20    1
    18     8     9    1
    19     8    31    1
    20     9    10    2
    21     9    32    1
    22    10    11    1
    23    10    33    1
    24    11    12    1
    25    11    20    2
    26    12    13    2
    27    12    19    1
    28    13    14    1
    29    13    34    1
    30    14    15    1
    31    14    16    2
    32    16    17    1
    33    16    35    1
    34    17    18    1
    35    17    19    2
    36    19    36    1
    37    20    37    1
    38    21    22    1
    39    21    23    1
    40    21    38    1
    41    22    23    1
    42    22    39    1
    43    22    40    1
    44    23    41    1
    45    23    42    1
    46    24    25    2
