@<TRIPOS>MOLECULE
lig
  44   47 0 0 0
SMALL
NO_CHARGES


@<TRIPOS>ATOM
      1 C_00         11.7748   -2.0496    1.1864 c4      1  lig      -0.080969
      2 N_01         13.0810   -2.4046    0.6207 n0      1  lig       0.006582
      3 C_02         14.2515   -2.5116    1.2702 c5      1  lig       0.441103
      4 N_03         14.4441   -2.3222    2.5814 ng      1  lig      -0.753157
      5 N_04         15.2422   -2.8670    0.4444 nr      1  lig      -0.395081
      6 C_05         14.7739   -3.0857   -0.9270 c6      1  lig      -0.107420
      7 C_06         14.8997   -4.5948   -1.2714 c7      1  lig      -0.251523
      8 C_07         16.0472   -5.1640   -1.8459 c8      1  lig       0.409395
      9 N_08         16.1698   -6.4826   -2.0817 nw      1  lig      -0.705530
     10 C_09         15.1536   -7.2493   -1.7242 c9      1  lig       0.740629
     11 N_0a         14.0437   -6.8476   -1.1288 nA      1  lig      -0.705530
     12 C_0b         13.9102   -5.5340   -0.9211 cb      1  lig       0.409395
     13 C_0c         15.3786   -2.0452   -1.9004 ci      1  lig       0.084327
     14 C_0d         15.8325   -2.3836   -3.1970 cj      1  lig      -0.113229
     15 C_0e         16.3422   -1.3953   -4.0510 ck      1  lig      -0.231931
     16 C_0f         16.3043   -0.0420   -3.6752 cm      1  lig      -0.042839
     17 C_0g         15.7978    0.3539   -2.4198 cn      1  lig      -0.040376
     18 C_0h         15.5968    1.7919   -2.0984 co      1  lig       0.002835
     19 C_0i         15.2949    2.7191   -3.1262 cq      1  lig      -0.122070
     20 C_0j         14.9736    4.0603   -2.8365 cr      1  lig      -0.186471
     21 C_0k         14.9642    4.5099   -1.5062 cs      1  lig      -0.037588
     22 C_0l         15.3030    3.6222   -0.4730 ct      1  lig      -0.054528
     23 Cl0m         15.3087    4.1915    1.1559 a0      1  lig      -0.091561
     24 C_0n         15.6158    2.2792   -0.7695 cw      1  lig      -0.026671
     25 C_0o         15.4019   -0.6710   -1.5264 cA      1  lig      -0.101086
     26 C_0p         13.2877   -2.7178   -0.7536 cB      1  lig       0.427482
     27 O_0q         12.3957   -2.7761   -1.6055 o0      1  lig      -0.403210
     28 H_0r         10.9783   -2.6474    0.7436 h0      1  lig       0.096946
     29 H_0s         11.7566   -2.2173    2.2632 h6      1  lig       0.096946
     30 H_0t         11.5613   -1.0002    0.9842 h7      1  lig       0.096946
     31 H_0u         15.3896   -2.3984    2.9629 h8      1  lig       0.427670
     32 H_0v         16.2251   -2.9096    0.7184 h9      1  lig       0.390862
     33 H_0w         16.8880   -4.5572   -2.1237 hb      1  lig       0.094876
     34 H_0x         15.2631   -8.3091   -1.8724 hd      1  lig       0.041335
     35 H_0y         12.9970   -5.2634   -0.4146 he      1  lig       0.094876
     36 H_0z         15.7947   -3.3853   -3.5936 hf      1  lig       0.165641
     37 H_10         16.7239   -1.6738   -5.0224 hg      1  lig       0.189315
     38 H_11         16.6360    0.6965   -4.3901 hh      1  lig       0.148692
     39 H_12         15.2470    2.3932   -4.1556 hi      1  lig       0.142001
     40 H_13         14.7005    4.7394   -3.6311 hj      1  lig       0.171092
     41 H_14         14.6919    5.5292   -1.2778 hk      1  lig       0.148149
     42 H_15         15.8575    1.6173    0.0455 hl      1  lig       0.096475
     43 H_16         15.0174   -0.3786   -0.5614 hm      1  lig       0.099530
     44 H_17         13.7269   -2.0003    3.2305 hq      1  lig       0.427670
@<TRIPOS>BOND
     1     1     2    1
     2     1    28    1
     3     1    29    1
     4     1    30    1
     5     2     3    1
     6     2    26    1
     7     3     4    1
     8     3     5    2
     9     4    31    1
    10     4    44    1
    11     5     6    1
    12     5    32    1
    13     6     7    1
    14     6    13    1
    15     6    26    1
    16     7     8    2
    17     7    12    1
    18     8     9    1
    19     8    33    1
    20     9    10    2
    21    10    11    1
    22    10    34    1
    23    11    12    2
    24    12    35    1
    25    13    14    2
    26    13    25    1
    27    14    15    1
    28    14    36    1
    29    15    16    2
    30    15    37    1
    31    16    17    1
    32    16    38    1
    33    17    18    1
    34    17    25    2
    35    18    19    2
    36    18    24    1
    37    19    20    1
    38    19    39    1
    39    20    21    2
    40    20    40    1
    41    21    22    1
    42    21    41    1
    43    22    23    1
    44    22    24    2
    45    24    42    1
    46    25    43    1
    47    26    27    2
