@<TRIPOS>MOLECULE
lig
  43   46 0 0 0
SMALL
NO_CHARGES


@<TRIPOS>ATOM
      1 C_00         11.7867   -2.3695    1.0808 c4      1  lig      -0.078909
      2 N_01         13.1391   -2.6647    0.5894 n0      1  lig       0.009054
      3 C_02         14.2724   -2.5929    1.3025 c5      1  lig       0.437721
      4 N_03         14.3735   -2.3189    2.6079 ng      1  lig      -0.839827
      5 N_04         15.3400   -2.8503    0.5494 nr      1  lig      -0.363271
      6 C_05         15.0019   -3.1745   -0.8288 c6      1  lig      -0.041827
      7 C_06         15.5499   -2.1167   -1.8053 c7      1  lig       0.011291
      8 C_07         16.1751   -2.4939   -3.0176 c8      1  lig      -0.088334
      9 C_08         16.6123   -1.5162   -3.9228 c9      1  lig      -0.171330
     10 C_09         16.4089   -0.1561   -3.6430 cb      1  lig      -0.077947
     11 C_0a         15.8123    0.2668   -2.4363 ci      1  lig      -0.058859
     12 C_0b         15.5764    1.7076   -2.1750 cj      1  lig      -0.066445
     13 C_0c         15.3708    2.6232   -3.2325 ck      1  lig       0.293588
     14 N_0d         15.0914    3.9313   -3.0640 nw      1  lig      -0.545607
     15 C_0e         15.0096    4.4072   -1.8089 cm      1  lig       0.238390
     16 C_0f         15.2273    3.6080   -0.6782 cn      1  lig      -0.062932
     17 C_0g         15.1482    4.1902    0.6471 co      1  lig       0.263572
     18 N_0h         15.0876    4.6561    1.7026 nA      1  lig      -0.406267
     19 C_0i         15.5205    2.2442   -0.8684 cq      1  lig      -0.048506
     20 C_0j         15.4068   -0.7330   -1.5195 cr      1  lig      -0.088043
     21 C_0k         15.5580   -4.5843   -1.0987 cs      1  lig      -0.139969
     22 C_0l         14.8986   -5.8590   -0.6073 ct      1  lig      -0.183020
     23 C_0m         14.9623   -5.5654   -2.0855 cw      1  lig      -0.183020
     24 C_0n         13.4651   -3.0501   -0.7487 cA      1  lig       0.444391
     25 O_0o         12.6345   -3.2045   -1.6492 o0      1  lig      -0.384278
     26 H_0p         11.6499   -2.7584    2.0897 h0      1  lig       0.093010
     27 H_0q         11.6364   -1.2905    1.1052 h6      1  lig       0.093010
     28 H_0r         11.0202   -2.8063    0.4400 h7      1  lig       0.093010
     29 H_0s         13.5959   -2.0527    3.2086 h8      1  lig       0.456834
     30 H_0t         16.3057   -2.8324    0.8841 h9      1  lig       0.381673
     31 H_0u         16.3244   -3.5281   -3.2917 hb      1  lig       0.125227
     32 H_0v         17.0863   -1.8073   -4.8504 hd      1  lig       0.174812
     33 H_0w         16.7167    0.5624   -4.3857 he      1  lig       0.147549
     34 H_0x         15.3884    2.2933   -4.2597 hf      1  lig       0.092692
     35 H_0y         14.7672    5.4560   -1.7113 hg      1  lig       0.135070
     36 H_0z         15.7081    1.6131   -0.0155 hh      1  lig       0.150701
     37 H_10         14.9272   -0.4331   -0.5998 hi      1  lig       0.082616
     38 H_11         16.6440   -4.6020   -1.0415 hj      1  lig       0.165502
     39 H_12         15.5493   -6.6459   -0.2306 hk      1  lig       0.120461
     40 H_13         13.9221   -5.8027   -0.1306 hl      1  lig       0.120461
     41 H_14         14.0276   -5.3112   -2.5720 hm      1  lig       0.120461
     42 H_15         15.6526   -6.1497   -2.6918 hq      1  lig       0.120461
     43 H_16         15.2970   -2.3098    3.0423 hr      1  lig       0.456834
@<TRIPOS>BOND
     1     1     2    1
     2     1    26    1
     3     1    27    1
     4     1    28    1
     5     2     3    1
     6     2    24    1
     7     3     4    1
     8     3     5    2
     9     4    29    1
    10     4    43    1
    11     5     6    1
    12     5    30    1
    13     6     7    1
    14     6    21    1
    15     6    24    1
    16     7     8    2
    17     7    20    1
    18     8     9    1
    19     8    31    1
    20     9    10    2
    21     9    32    1
    22    10    11    1
    23    10    33    1
    24    11    12    1
    25    11    20    2
    26    12    13    2
    27    12    19    1
    28    13    14    1
    29    13    34    1
    30    14    15    2
    31    15    16    1
    32    15    35    1
    33    16    17    1
    34    16    19    2
    35    17    18    3
    36    19    36    1
    37    20    37    1
    38    21    22    1
    39    21    23    1
    40    21    38    1
    41    22    23    1
    42    22    39    1
    43    22    40    1
    44    23    41    1
    45    23    42    1
    46    24    25    2
