@<TRIPOS>MOLECULE
lig
  42   45 0 0 0
SMALL
NO_CHARGES


@<TRIPOS>ATOM
      1 C_00         11.7744   -2.0618    1.1343 c4      1  lig      -0.139539
      2 N_01         13.0790   -2.4524    0.5877 n0      1  lig       0.061606
      3 C_02         14.2431   -2.5421    1.2539 c5      1  lig       0.129015
      4 N_03         14.4169   -2.3498    2.5687 ng      1  lig      -0.634170
      5 N_04         15.2561   -2.8530    0.4409 nr      1  lig      -0.139619
      6 C_05         14.8080   -3.0850   -0.9332 c6      1  lig      -0.004675
      7 C_06         15.4265   -2.0582   -1.9126 c7      1  lig      -0.051323
      8 C_07         15.8985   -2.3994   -3.2015 c8      1  lig      -0.082946
      9 C_08         16.3932   -1.4095   -4.0612 c9      1  lig      -0.194030
     10 C_09         16.3356   -0.0554   -3.6934 cb      1  lig      -0.079949
     11 C_0a         15.8305    0.3417   -2.4379 ci      1  lig      -0.010594
     12 C_0b         15.6352    1.7780   -2.1098 cj      1  lig       0.003459
     13 C_0c         15.3646    2.7170   -3.1346 ck      1  lig      -0.106249
     14 C_0d         15.0637    4.0615   -2.8394 cm      1  lig      -0.207628
     15 C_0e         15.0416    4.5010   -1.5065 cn      1  lig      -0.030700
     16 C_0f         15.3459    3.6006   -0.4746 co      1  lig      -0.041390
     17 Cl0g         15.3403    4.1597    1.1570 a0      1  lig      -0.097400
     18 C_0h         15.6382    2.2541   -0.7761 cq      1  lig      -0.031861
     19 C_0i         15.4351   -0.6823   -1.5449 cr      1  lig      -0.077894
     20 C_0j         14.8980   -4.5908   -1.1993 cs      1  lig       0.222247
     21 N_0k         14.0678   -5.4772   -0.6139 nw      1  lig      -0.387143
     22 C_0l         14.3911   -6.8147   -0.8480 ct      1  lig      -0.026846
     23 C_0m         15.5272   -6.9668   -1.5932 cw      1  lig      -0.223566
     24 S_0n         16.2112   -5.4292   -2.0461 s0      1  lig       0.080479
     25 C_0o         13.3123   -2.7371   -0.7906 cA      1  lig       0.485488
     26 O_0p         12.4481   -2.6727   -1.6750 o0      1  lig      -0.411720
     27 H_0q         10.9567   -2.5358    0.5853 h0      1  lig       0.113223
     28 H_0r         11.6873   -2.3480    2.1847 h6      1  lig       0.113223
     29 H_0s         11.6583   -0.9791    1.0515 h7      1  lig       0.113223
     30 H_0t         15.3579   -2.4095    2.9620 h8      1  lig       0.412861
     31 H_0u         16.2309   -2.9314    0.7292 h9      1  lig       0.339951
     32 H_0v         15.8825   -3.4030   -3.5906 hb      1  lig       0.132605
     33 H_0w         16.7794   -1.6903   -5.0303 hd      1  lig       0.179924
     34 H_0x         16.6583    0.6820   -4.4118 he      1  lig       0.148141
     35 H_0y         15.3304    2.4001   -4.1665 hf      1  lig       0.138968
     36 H_0z         14.8193    4.7549   -3.6303 hg      1  lig       0.173405
     37 H_10         14.7893    5.5257   -1.2732 hh      1  lig       0.143505
     38 H_11         15.8546    1.5828    0.0371 hi      1  lig       0.103131
     39 H_12         15.0403   -0.3905   -0.5831 hj      1  lig       0.059250
     40 H_13         13.7694   -7.5955   -0.4287 hk      1  lig       0.173807
     41 H_14         15.9903   -7.8907   -1.9004 hl      1  lig       0.238870
     42 H_15         13.6835   -2.0468    3.2074 hm      1  lig       0.412861
@<TRIPOS>BOND
     1     1     2    1
     2     1    27    1
     3     1    28    1
     4     1    29    1
     5     2     3    1
     6     2    25    1
     7     3     4    1
     8     3     5    2
     9     4    30    1
    10     4    42    1
    11     5     6    1
    12     5    31    1
    13     6     7    1
    14     6    20    1
    15     6    25    1
    16     7     8    2
    17     7    19    1
    18     8     9    1
    19     8    32    1
    20     9    10    2
    21     9    33    1
    22    10    11    1
    23    10    34    1
    24    11    12    1
    25    11    19    2
    26    12    13    2
    27    12    18    1
    28    13    14    1
    29    13    35    1
    30    14    15    2
    31    14    36    1
    32    15    16    1
    33    15    37    1
    34    16    17    1
    35    16    18    2
    36    18    38    1
    37    19    39    1
    38    20    21    2
    39    20    24    1
    40    21    22    1
    41    22    23    2
    42    22    40    1
    43    23    24    1
    44    23    41    1
    45    25    26    2
