@<TRIPOS>MOLECULE
lig
  42   45 0 0 0
SMALL
NO_CHARGES


@<TRIPOS>ATOM
      1 C_00         11.7876   -2.3629    1.0753 c4      1  lig      -0.082329
      2 N_01         13.1411   -2.6519    0.5831 n0      1  lig       0.017383
      3 C_02         14.2738   -2.5824    1.2973 c5      1  lig       0.411173
      4 N_03         14.3737   -2.3175    2.6048 ng      1  lig      -0.848132
      5 N_04         15.3423   -2.8322    0.5428 nr      1  lig      -0.306259
      6 C_05         15.0054   -3.1469   -0.8380 c6      1  lig      -0.052742
      7 C_06         15.5491   -2.0803   -1.8069 c7      1  lig       0.013154
      8 C_07         16.1588   -2.4454   -3.0305 c8      1  lig      -0.090023
      9 C_08         16.5920   -1.4580   -3.9273 c9      1  lig      -0.169810
     10 C_09         16.4001   -0.0996   -3.6280 cb      1  lig      -0.079772
     11 C_0a         15.8193    0.3104   -2.4088 ci      1  lig      -0.072156
     12 C_0b         15.5975    1.7479   -2.1182 cj      1  lig      -0.036464
     13 C_0c         15.3876    2.6890   -3.1521 ck      1  lig       0.226252
     14 N_0d         15.1194    3.9953   -2.9527 nw      1  lig      -0.555832
     15 C_0e         15.0499    4.4405   -1.6849 cm      1  lig       0.361762
     16 C_0f         15.2748    3.6152   -0.5724 cn      1  lig      -0.187663
     17 Cl0g         15.1922    4.2577    1.0276 a0      1  lig      -0.080593
     18 C_0h         15.5592    2.2562   -0.8005 co      1  lig       0.032834
     19 C_0i         15.4167   -0.6999   -1.5023 cq      1  lig      -0.085650
     20 C_0j         15.5681   -4.5517   -1.1183 cr      1  lig      -0.134614
     21 C_0k         14.9253   -5.8313   -0.6183 cs      1  lig      -0.180649
     22 C_0l         14.9664   -5.5372   -2.0971 ct      1  lig      -0.180649
     23 C_0m         13.4684   -3.0281   -0.7573 cw      1  lig       0.430035
     24 O_0n         12.6385   -3.1793   -1.6592 o0      1  lig      -0.378382
     25 H_0o         11.0228   -2.8008    0.4334 h0      1  lig       0.094204
     26 H_0p         11.6523   -2.7549    2.0833 h6      1  lig       0.094204
     27 H_0q         11.6336   -1.2845    1.1023 h7      1  lig       0.094204
     28 H_0r         13.5957   -2.0540    3.2061 h8      1  lig       0.459229
     29 H_0s         16.3077   -2.8168    0.8784 h9      1  lig       0.364271
     30 H_0t         16.2986   -3.4771   -3.3189 hb      1  lig       0.122545
     31 H_0u         17.0552   -1.7421   -4.8626 hd      1  lig       0.174066
     32 H_0v         16.7063    0.6263   -4.3648 he      1  lig       0.148126
     33 H_0w         15.3927    2.3806   -4.1861 hf      1  lig       0.102193
     34 H_0x         14.8134    5.4864   -1.5542 hg      1  lig       0.085849
     35 H_0y         15.7498    1.6090    0.0382 hh      1  lig       0.115480
     36 H_0z         14.9482   -0.4103   -0.5739 hi      1  lig       0.079850
     37 H_10         16.6547   -4.5613   -1.0761 hj      1  lig       0.161792
     38 H_11         15.5873   -6.6129   -0.2503 hk      1  lig       0.118471
     39 H_12         13.9555   -5.7814   -0.1275 hl      1  lig       0.118471
     40 H_13         14.0224   -5.2918   -2.5696 hm      1  lig       0.118471
     41 H_14         15.6527   -6.1160   -2.7131 hq      1  lig       0.118471
     42 H_15         15.2970   -2.3102    3.0396 hr      1  lig       0.459229
@<TRIPOS>BOND
     1     1     2    1
     2     1    25    1
     3     1    26    1
     4     1    27    1
     5     2     3    1
     6     2    23    1
     7     3     4    1
     8     3     5    2
     9     4    28    1
    10     4    42    1
    11     5     6    1
    12     5    29    1
    13     6     7    1
    14     6    20    1
    15     6    23    1
    16     7     8    2
    17     7    19    1
    18     8     9    1
    19     8    30    1
    20     9    10    2
    21     9    31    1
    22    10    11    1
    23    10    32    1
    24    11    12    1
    25    11    19    2
    26    12    13    2
    27    12    18    1
    28    13    14    1
    29    13    33    1
    30    14    15    2
    31    15    16    1
    32    15    34    1
    33    16    17    1
    34    16    18    2
    35    18    35    1
    36    19    36    1
    37    20    21    1
    38    20    22    1
    39    20    37    1
    40    21    22    1
    41    21    38    1
    42    21    39    1
    43    22    40    1
    44    22    41    1
    45    23    24    2
