@<TRIPOS>MOLECULE
lig
  47   50 0 0 0
SMALL
NO_CHARGES


@<TRIPOS>ATOM
      1 C_00         14.8884    4.7758    1.2264 c4      1  lig       0.000294
      2 O_01         15.4957    3.5598    0.8392 o0      1  lig      -0.336843
      3 C_02         15.4238    3.2070   -0.4882 c5      1  lig       0.240673
      4 C_03         15.1334    4.1078   -1.5370 c6      1  lig      -0.124540
      5 C_04         15.1104    3.6468   -2.8636 c7      1  lig      -0.239024
      6 C_05         15.3679    2.2912   -3.1537 c8      1  lig      -0.133762
      7 C_06         15.6266    1.3615   -2.1168 c9      1  lig      -0.016063
      8 C_07         15.8148   -0.0835   -2.3955 cb      1  lig       0.011809
      9 C_08         16.3949   -0.4894   -3.6079 ci      1  lig      -0.061427
     10 C_09         16.5054   -1.8465   -3.9388 cj      1  lig      -0.246012
     11 C_0a         16.0401   -2.8367   -3.0545 ck      1  lig      -0.029340
     12 C_0b         15.4687   -2.4844   -1.8058 cm      1  lig      -0.005710
     13 C_0c         14.8765   -3.4953   -0.7767 cn      1  lig      -0.052250
     14 C_0d         15.0969   -5.0253   -0.8826 co      1  lig      -0.124433
     15 C_0e         14.8831   -5.8408   -2.1342 cq      1  lig      -0.237113
     16 C_0f         16.2579   -5.7566   -1.5174 cr      1  lig      -0.237113
     17 N_0g         15.2831   -3.1271    0.5768 n0      1  lig      -0.381846
     18 C_0h         14.2456   -2.7938    1.3470 cs      1  lig       0.451316
     19 N_0i         14.3920   -2.4607    2.6335 ng      1  lig      -0.833987
     20 N_0j         13.0879   -2.8500    0.6736 nr      1  lig       0.056688
     21 C_0k         11.7608   -2.5496    1.2227 ct      1  lig      -0.041023
     22 C_0l         13.3577   -3.2550   -0.6672 cw      1  lig       0.355374
     23 O_0m         12.4975   -3.3906   -1.5423 o1      1  lig      -0.394288
     24 C_0n         15.3879   -1.0935   -1.4999 cA      1  lig      -0.092010
     25 C_0o         15.6597    1.8544   -0.7971 cB      1  lig      -0.148021
     26 H_0p         14.9248    4.8682    2.3123 h0      1  lig       0.076606
     27 H_0q         15.3955    5.6327    0.7976 h6      1  lig       0.076606
     28 H_0r         13.8484    4.8040    0.9119 h7      1  lig       0.076606
     29 H_0s         14.9345    5.1528   -1.3550 h8      1  lig       0.130486
     30 H_0t         14.8807    4.3379   -3.6572 h9      1  lig       0.189504
     31 H_0u         15.3228    1.9594   -4.1830 hb      1  lig       0.129594
     32 H_0v         16.7454    0.2546   -4.3045 hd      1  lig       0.150410
     33 H_0w         16.9433   -2.1069   -4.8912 he      1  lig       0.179063
     34 H_0x         16.1427   -3.8499   -3.3919 hf      1  lig       0.144485
     35 H_0y         14.7320   -5.5257    0.0163 hg      1  lig       0.160969
     36 H_0z         14.3435   -6.7811   -2.0394 hh      1  lig       0.144850
     37 H_10         14.6921   -5.3031   -3.0518 hi      1  lig       0.144850
     38 H_11         17.0103   -5.2043   -2.0606 hj      1  lig       0.144850
     39 H_12         16.6257   -6.6394   -0.9948 hk      1  lig       0.144850
     40 H_13         16.2616   -3.0818    0.8652 hl      1  lig       0.390958
     41 H_14         13.6434   -2.1215    3.2365 hm      1  lig       0.446894
     42 H_15         11.8062   -1.5722    1.6900 hq      1  lig       0.081478
     43 H_16         11.4779   -3.2829    1.9791 hr      1  lig       0.081478
     44 H_17         10.9878   -2.5218    0.4540 ht      1  lig       0.081478
     45 H_18         14.9339   -0.7828   -0.5721 hu      1  lig       0.089958
     46 H_19         15.8580    1.1777    0.0148 hv      1  lig       0.105784
     47 H_1a         15.3342   -2.4335    3.0256 hy      1  lig       0.446894
@<TRIPOS>BOND
     1     1     2    1
     2     1    26    1
     3     1    27    1
     4     1    28    1
     5     2     3    1
     6     3     4    2
     7     3    25    1
     8     4     5    1
     9     4    29    1
    10     5     6    2
    11     5    30    1
    12     6     7    1
    13     6    31    1
    14     7     8    1
    15     7    25    2
    16     8     9    2
    17     8    24    1
    18     9    10    1
    19     9    32    1
    20    10    11    2
    21    10    33    1
    22    11    12    1
    23    11    34    1
    24    12    13    1
    25    12    24    2
    26    13    14    1
    27    13    17    1
    28    13    22    1
    29    14    15    1
    30    14    16    1
    31    14    35    1
    32    15    16    1
    33    15    36    1
    34    15    37    1
    35    16    38    1
    36    16    39    1
    37    17    18    2
    38    17    40    1
    39    18    19    1
    40    18    20    1
    41    19    41    1
    42    19    47    1
    43    20    21    1
    44    20    22    1
    45    21    42    1
    46    21    43    1
    47    21    44    1
    48    22    23    2
    49    24    45    1
    50    25    46    1
