@<TRIPOS>MOLECULE
lig
  46   49 0 0 0
SMALL
NO_CHARGES


@<TRIPOS>ATOM
      1 C_00         11.7066   -2.3243    1.1522 c4      1  lig      -0.193231
      2 N_01         13.0800   -2.5317    0.6754 n0      1  lig      -0.040873
      3 C_02         14.2034   -2.4301    1.3983 c5      1  lig       0.577601
      4 N_03         14.2886   -2.2311    2.7108 ng      1  lig      -0.838367
      5 N_04         15.2911   -2.5895    0.6543 nr      1  lig      -0.499148
      6 C_05         14.9789   -2.9821   -0.7080 c6      1  lig      -0.004562
      7 C_06         15.4754   -4.4511   -0.8097 c7      1  lig      -0.058659
      8 C_07         15.0159   -5.2708   -1.9954 c8      1  lig       0.001615
      9 C_08         16.0514   -5.9027   -2.8811 c9      1  lig      -0.348986
     10 C_09         15.1860   -6.7771   -2.0216 cb      1  lig      -0.348986
     11 C_0a         15.5532   -1.9672   -1.7162 ci      1  lig      -0.024482
     12 C_0b         16.2219   -2.3572   -2.8994 cj      1  lig      -0.149764
     13 C_0c         16.6507   -1.3904   -3.8245 ck      1  lig      -0.185641
     14 C_0d         16.4179   -0.0251   -3.5806 cm      1  lig      -0.077529
     15 C_0e         15.8037    0.4089   -2.3876 cn      1  lig      -0.025314
     16 C_0f         15.5510    1.8451   -2.1204 co      1  lig      -0.002220
     17 C_0g         15.2562    2.7420   -3.1736 cq      1  lig      -0.114667
     18 C_0h         14.9250    4.0879   -2.9144 cr      1  lig      -0.192848
     19 C_0i         14.8974    4.5661   -1.5934 cs      1  lig      -0.035424
     20 C_0j         15.2242    3.7028   -0.5356 ct      1  lig      -0.048101
     21 Cl0k         15.2032    4.2948    1.0849 a0      1  lig      -0.096208
     22 C_0l         15.5515    2.3585   -0.8014 cw      1  lig      -0.010172
     23 C_0m         15.3871   -0.5807   -1.4698 cA      1  lig      -0.076896
     24 C_0n         13.4407   -2.8723   -0.6618 cB      1  lig       0.509194
     25 O_0o         12.6320   -3.0299   -1.5816 o0      1  lig      -0.427859
     26 H_0p         11.6045   -2.6345    2.1919 h0      1  lig       0.122604
     27 H_0q         11.4528   -1.2670    1.0806 h6      1  lig       0.122604
     28 H_0r         10.9882   -2.8880    0.5564 h7      1  lig       0.122604
     29 H_0s         13.5001   -2.0136    3.3166 h8      1  lig       0.446891
     30 H_0t         16.2490   -2.5893    1.0094 h9      1  lig       0.389113
     31 H_0u         15.1583   -4.9961    0.0813 hb      1  lig       0.064083
     32 H_0v         16.5650   -4.4616   -0.7696 hd      1  lig       0.064083
     33 H_0w         14.1142   -4.9159   -2.4837 he      1  lig       0.120060
     34 H_0x         15.8387   -5.7722   -3.9334 hf      1  lig       0.168713
     35 H_0y         17.0974   -5.8246   -2.6005 hg      1  lig       0.168713
     36 H_0z         15.6529   -7.2541   -1.1618 hh      1  lig       0.168713
     37 H_10         14.4212   -7.3678   -2.5220 hi      1  lig       0.168713
     38 H_11         16.4112   -3.3885   -3.1398 hj      1  lig       0.150999
     39 H_12         17.1458   -1.6957   -4.7368 hk      1  lig       0.170892
     40 H_13         16.7204    0.6932   -4.3262 hl      1  lig       0.146786
     41 H_14         15.2353    2.3868   -4.1937 hm      1  lig       0.139068
     42 H_15         14.6630    4.7530   -3.7239 hq      1  lig       0.168734
     43 H_16         14.6225    5.5912   -1.3891 hr      1  lig       0.144706
     44 H_17         15.7971    1.7149    0.0269 ht      1  lig       0.098958
     45 H_18         14.8794   -0.2617   -0.5736 hu      1  lig       0.117599
     46 H_19         15.2059   -2.2088    3.1539 hv      1  lig       0.446891
@<TRIPOS>BOND
     1     1     2    1
     2     1    26    1
     3     1    27    1
     4     1    28    1
     5     2     3    1
     6     2    24    1
     7     3     4    1
     8     3     5    2
     9     4    29    1
    10     4    46    1
    11     5     6    1
    12     5    30    1
    13     6     7    1
    14     6    11    1
    15     6    24    1
    16     7     8    1
    17     7    31    1
    18     7    32    1
    19     8     9    1
    20     8    10    1
    21     8    33    1
    22     9    10    1
    23     9    34    1
    24     9    35    1
    25    10    36    1
    26    10    37    1
    27    11    12    2
    28    11    23    1
    29    12    13    1
    30    12    38    1
    31    13    14    2
    32    13    39    1
    33    14    15    1
    34    14    40    1
    35    15    16    1
    36    15    23    2
    37    16    17    2
    38    16    22    1
    39    17    18    1
    40    17    41    1
    41    18    19    2
    42    18    42    1
    43    19    20    1
    44    19    43    1
    45    20    21    1
    46    20    22    2
    47    22    44    1
    48    23    45    1
    49    24    25    2
