@<TRIPOS>MOLECULE
lig
  42   44 0 0 0
SMALL
NO_CHARGES


@<TRIPOS>ATOM
      1 C_00         14.8880   -5.3200   -2.2411 c4      1  lig      -0.090728
      2 C_01         15.5152   -4.5191   -1.0878 c5      1  lig       0.022461
      3 C_02         15.0250   -3.0580   -0.8408 c6      1  lig       0.000704
      4 C_03         15.5972   -1.9892   -1.7961 c7      1  lig      -0.018088
      5 C_04         16.2813   -2.3331   -2.9861 c8      1  lig      -0.168112
      6 C_05         16.6931   -1.3359   -3.8827 c9      1  lig      -0.181322
      7 C_06         16.4366    0.0163   -3.6011 cb      1  lig      -0.062003
      8 C_07         15.8215    0.4094   -2.3948 ci      1  lig      -0.006217
      9 C_08         15.5584    1.8393   -2.1031 cj      1  lig      -0.016142
     10 C_09         15.2599    2.7489   -3.1451 ck      1  lig      -0.104520
     11 C_0a         14.9356    4.0932   -2.8723 cm      1  lig      -0.203084
     12 C_0b         14.9160    4.5575   -1.5465 cn      1  lig      -0.034536
     13 C_0c         15.2425    3.6816   -0.4989 co      1  lig      -0.042707
     14 Cl0d         15.2357    4.2626    1.1255 a0      1  lig      -0.095161
     15 C_0e         15.5620    2.3374   -0.7787 cq      1  lig      -0.020530
     16 C_0f         15.4202   -0.6110   -1.5012 cr      1  lig      -0.065861
     17 N_0g         15.3485   -2.7407    0.5435 n0      1  lig      -0.550910
     18 C_0h         14.2748   -2.5004    1.2924 cs      1  lig       0.582293
     19 N_0i         14.3659   -2.2678    2.6058 ng      1  lig      -0.828656
     20 N_0j         13.1492   -2.5542    0.5669 nr      1  lig      -0.048113
     21 C_0k         11.7915   -2.2624    1.0450 ct      1  lig      -0.123815
     22 C_0l         13.4891   -2.9216   -0.7722 cw      1  lig       0.467810
     23 O_0m         12.6678   -3.0625   -1.6834 o0      1  lig      -0.401481
     24 H_0n         14.9642   -4.8005   -3.1912 h0      1  lig       0.047871
     25 H_0o         15.3880   -6.2814   -2.3613 h6      1  lig       0.047871
     26 H_0p         13.8332   -5.5295   -2.0640 h7      1  lig       0.047871
     27 H_0q         16.5958   -4.5023   -1.2260 h8      1  lig       0.044569
     28 H_0r         15.3696   -5.1062   -0.1795 h9      1  lig       0.044569
     29 H_0s         16.5020   -3.3529   -3.2560 hb      1  lig       0.168811
     30 H_0t         17.1954   -1.6103   -4.8005 hd      1  lig       0.169988
     31 H_0u         16.7286    0.7571   -4.3282 he      1  lig       0.136853
     32 H_0v         15.2342    2.4069   -4.1695 hf      1  lig       0.145015
     33 H_0w         14.6762    4.7669   -3.6756 hg      1  lig       0.172674
     34 H_0x         14.6486    5.5822   -1.3307 hh      1  lig       0.147033
     35 H_0y         15.8089    1.6832    0.0405 hi      1  lig       0.089194
     36 H_0z         14.9145   -0.3233   -0.5923 hj      1  lig       0.114282
     37 H_10         16.3102   -2.7378    0.8907 hk      1  lig       0.407217
     38 H_11         13.5848   -2.0116    3.2058 hl      1  lig       0.444554
     39 H_12         11.6537   -2.6250    2.0635 hm      1  lig       0.105264
     40 H_13         11.6291   -1.1849    1.0382 hq      1  lig       0.105264
     41 H_14         11.0342   -2.7257    0.4122 hr      1  lig       0.105264
     42 H_15         15.2856   -2.2732    3.0472 ht      1  lig       0.444554
@<TRIPOS>BOND
     1     1     2    1
     2     1    24    1
     3     1    25    1
     4     1    26    1
     5     2     3    1
     6     2    27    1
     7     2    28    1
     8     3     4    1
     9     3    17    1
    10     3    22    1
    11     4     5    2
    12     4    16    1
    13     5     6    1
    14     5    29    1
    15     6     7    2
    16     6    30    1
    17     7     8    1
    18     7    31    1
    19     8     9    1
    20     8    16    2
    21     9    10    2
    22     9    15    1
    23    10    11    1
    24    10    32    1
    25    11    12    2
    26    11    33    1
    27    12    13    1
    28    12    34    1
    29    13    14    1
    30    13    15    2
    31    15    35    1
    32    16    36    1
    33    17    18    2
    34    17    37    1
    35    18    19    1
    36    18    20    1
    37    19    38    1
    38    19    42    1
    39    20    21    1
    40    20    22    1
    41    21    39    1
    42    21    40    1
    43    21    41    1
    44    22    23    2
