@<TRIPOS>MOLECULE
lig
  44   47 0 0 0
SMALL
NO_CHARGES


@<TRIPOS>ATOM
      1 C_00         11.7853   -2.3455    1.0634 c4      1  lig      -0.066172
      2 N_01         13.1441   -2.6062    0.5704 n0      1  lig      -0.000180
      3 C_02         14.2744   -2.5302    1.2878 c5      1  lig       0.484126
      4 N_03         14.3686   -2.2901    2.6004 ng      1  lig      -0.834281
      5 N_04         15.3478   -2.7494    0.5312 nr      1  lig      -0.455252
      6 C_05         15.0177   -3.0661   -0.8502 c6      1  lig      -0.035021
      7 C_06         15.5551   -1.9961   -1.8186 c7      1  lig      -0.002247
      8 C_07         16.2098   -2.3561   -3.0209 c8      1  lig      -0.070492
      9 C_08         16.6298   -1.3669   -3.9225 c9      1  lig      -0.198178
     10 C_09         16.3789   -0.0114   -3.6497 cb      1  lig      -0.084697
     11 C_0a         15.7538    0.3922   -2.4512 ci      1  lig      -0.003174
     12 C_0b         15.4596    1.8218   -2.1925 cj      1  lig       0.003634
     13 C_0c         15.1111    2.6867   -3.2564 ck      1  lig      -0.071667
     14 C_0d         14.7531    4.0293   -3.0229 cm      1  lig      -0.196846
     15 C_0e         14.7533    4.5399   -1.7148 cn      1  lig      -0.096543
     16 C_0f         15.1249    3.7078   -0.6437 co      1  lig      -0.023396
     17 C_0g         15.1349    4.2481    0.7044 cq      1  lig       0.332119
     18 N_0h         15.1438    4.6818    1.7758 nw      1  lig      -0.443045
     19 C_0i         15.4757    2.3610   -0.8842 cr      1  lig      -0.099424
     20 C_0j         15.3690   -0.6167   -1.5375 cs      1  lig      -0.094371
     21 C_0k         15.5917   -4.4671   -1.1260 ct      1  lig      -0.088846
     22 C_0l         14.9497   -5.7532   -0.6412 cw      1  lig      -0.192536
     23 C_0m         15.0113   -5.4514   -2.1181 cA      1  lig      -0.192536
     24 C_0n         13.4793   -2.9638   -0.7730 cB      1  lig       0.421169
     25 O_0o         12.6533   -3.1192   -1.6780 o0      1  lig      -0.374150
     26 H_0p         11.6561   -2.7472    2.0690 h0      1  lig       0.088886
     27 H_0q         11.6120   -1.2696    1.0974 h6      1  lig       0.088886
     28 H_0r         11.0290   -2.7929    0.4170 h7      1  lig       0.088886
     29 H_0s         13.5877   -2.0398    3.2034 h8      1  lig       0.452875
     30 H_0t         16.3113   -2.7407    0.8724 h9      1  lig       0.412671
     31 H_0u         16.3937   -3.3859   -3.2910 hb      1  lig       0.119381
     32 H_0v         17.1250   -1.6496   -4.8417 hd      1  lig       0.179854
     33 H_0w         16.6709    0.7238   -4.3837 he      1  lig       0.149328
     34 H_0x         15.0741    2.3090   -4.2679 hf      1  lig       0.142161
     35 H_0y         14.4546    4.6661   -3.8431 hg      1  lig       0.175080
     36 H_0z         14.4627    5.5666   -1.5361 hh      1  lig       0.176866
     37 H_10         15.7579    1.7345   -0.0524 hi      1  lig       0.126277
     38 H_11         14.8680   -0.3210   -0.6281 hj      1  lig       0.092829
     39 H_12         16.6771   -4.4708   -1.0657 hk      1  lig       0.150511
     40 H_13         15.6117   -6.5318   -0.2669 hl      1  lig       0.121160
     41 H_14         13.9721   -5.7129   -0.1653 hm      1  lig       0.121160
     42 H_15         14.0736   -5.2076   -2.6034 hq      1  lig       0.121160
     43 H_16         15.7105   -6.0225   -2.7268 hr      1  lig       0.121160
     44 H_17         15.2904   -2.2843    3.0382 ht      1  lig       0.452875
@<TRIPOS>BOND
     1     1     2    1
     2     1    26    1
     3     1    27    1
     4     1    28    1
     5     2     3    1
     6     2    24    1
     7     3     4    1
     8     3     5    2
     9     4    29    1
    10     4    44    1
    11     5     6    1
    12     5    30    1
    13     6     7    1
    14     6    21    1
    15     6    24    1
    16     7     8    2
    17     7    20    1
    18     8     9    1
    19     8    31    1
    20     9    10    2
    21     9    32    1
    22    10    11    1
    23    10    33    1
    24    11    12    1
    25    11    20    2
    26    12    13    2
    27    12    19    1
    28    13    14    1
    29    13    34    1
    30    14    15    2
    31    14    35    1
    32    15    16    1
    33    15    36    1
    34    16    17    1
    35    16    19    2
    36    17    18    3
    37    19    37    1
    38    20    38    1
    39    21    22    1
    40    21    23    1
    41    21    39    1
    42    22    23    1
    43    22    40    1
    44    22    41    1
    45    23    42    1
    46    23    43    1
    47    24    25    2
