@<TRIPOS>MOLECULE
lig
  45   47 0 0 0
SMALL
NO_CHARGES


@<TRIPOS>ATOM
      1 C_00         14.8243   -5.5742   -0.0947 c4      1  lig      -0.253730
      2 C_01         15.4101   -4.5803   -1.1308 c5      1  lig       0.114043
      3 C_02         15.0445   -5.1774   -2.5045 c6      1  lig      -0.253732
      4 C_03         14.9998   -3.0811   -0.8556 c7      1  lig      -0.024402
      5 C_04         15.6258   -1.9906   -1.7553 c8      1  lig      -0.043573
      6 C_05         16.4955   -2.2936   -2.8279 c9      1  lig      -0.179656
      7 C_06         16.9111   -1.2926   -3.7153 cb      1  lig      -0.161597
      8 C_07         16.5206    0.0385   -3.5029 ci      1  lig      -0.077032
      9 C_08         15.7885    0.4123   -2.3599 cj      1  lig      -0.008807
     10 C_09         15.4739    1.8324   -2.0914 ck      1  lig      -0.010805
     11 C_0a         15.1414    2.7151   -3.1458 cm      1  lig      -0.104940
     12 C_0b         14.7981    4.0583   -2.8917 cn      1  lig      -0.206204
     13 C_0c         14.7943    4.5475   -1.5747 co      1  lig      -0.026937
     14 C_0d         15.1524    3.6968   -0.5157 cq      1  lig      -0.041680
     15 Cl0e         15.1667    4.3072    1.0977 a0      1  lig      -0.095600
     16 C_0f         15.4905    2.3531   -0.7758 cr      1  lig      -0.032436
     17 C_0g         15.3469   -0.6200   -1.5014 cs      1  lig      -0.045839
     18 N_0h         15.3359   -2.7757    0.5285 n0      1  lig      -0.344338
     19 C_0i         14.2637   -2.5233    1.2771 ct      1  lig       0.460640
     20 N_0j         14.3552   -2.2987    2.5928 ng      1  lig      -0.899381
     21 N_0k         13.1359   -2.5504    0.5500 nr      1  lig       0.030998
     22 C_0l         11.7814   -2.2577    1.0358 cw      1  lig      -0.050026
     23 C_0m         13.4689   -2.8905   -0.7989 cA      1  lig       0.331924
     24 O_0n         12.6469   -3.0008   -1.7148 o0      1  lig      -0.365298
     25 H_0o         14.9202   -5.2280    0.9322 h0      1  lig       0.088019
     26 H_0p         13.7610   -5.7564   -0.2621 h6      1  lig       0.088019
     27 H_0q         15.3243   -6.5432   -0.1594 h7      1  lig       0.088019
     28 H_0r         16.4947   -4.6261   -1.0370 h8      1  lig       0.066640
     29 H_0s         15.5206   -6.1495   -2.6416 h9      1  lig       0.088019
     30 H_0t         13.9725   -5.3529   -2.5664 hb      1  lig       0.088019
     31 H_0u         15.3121   -4.5773   -3.3684 hd      1  lig       0.088019
     32 H_0v         16.8570   -3.2884   -3.0200 he      1  lig       0.153220
     33 H_0w         17.5257   -1.5537   -4.5674 hf      1  lig       0.168444
     34 H_0x         16.8153    0.7851   -4.2160 hg      1  lig       0.138583
     35 H_0y         15.1171    2.3517   -4.1629 hh      1  lig       0.144822
     36 H_0z         14.5198    4.7129   -3.7050 hi      1  lig       0.172105
     37 H_10         14.5170    5.5730   -1.3742 hj      1  lig       0.143975
     38 H_11         15.7714    1.7167    0.0475 hk      1  lig       0.094871
     39 H_12         14.7438   -0.3437   -0.6505 hl      1  lig       0.126025
     40 H_13         16.2978   -2.7814    0.8714 hm      1  lig       0.349276
     41 H_14         13.5760   -2.0345    3.1926 hq      1  lig       0.472834
     42 H_15         11.0172   -2.6393    0.3588 hr      1  lig       0.085555
     43 H_16         11.6229   -2.7045    2.0161 ht      1  lig       0.085555
     44 H_17         11.6547   -1.1800    1.1210 hu      1  lig       0.085555
     45 H_18         15.2760   -2.3086    3.0316 hv      1  lig       0.472834
@<TRIPOS>BOND
     1     1     2    1
     2     1    25    1
     3     1    26    1
     4     1    27    1
     5     2     3    1
     6     2     4    1
     7     2    28    1
     8     3    29    1
     9     3    30    1
    10     3    31    1
    11     4     5    1
    12     4    18    1
    13     4    23    1
    14     5     6    2
    15     5    17    1
    16     6     7    1
    17     6    32    1
    18     7     8    2
    19     7    33    1
    20     8     9    1
    21     8    34    1
    22     9    10    1
    23     9    17    2
    24    10    11    2
    25    10    16    1
    26    11    12    1
    27    11    35    1
    28    12    13    2
    29    12    36    1
    30    13    14    1
    31    13    37    1
    32    14    15    1
    33    14    16    2
    34    16    38    1
    35    17    39    1
    36    18    19    2
    37    18    40    1
    38    19    20    1
    39    19    21    1
    40    20    41    1
    41    20    45    1
    42    21    22    1
    43    21    23    1
    44    22    42    1
    45    22    43    1
    46    22    44    1
    47    23    24    2
