@<TRIPOS>MOLECULE
lig
  45   48 0 0 0
SMALL
NO_CHARGES


@<TRIPOS>ATOM
      1 C_00         11.7106   -2.3098    1.2658 c4      1  lig      -0.076884
      2 N_01         13.0313   -2.6523    0.7225 n0      1  lig       0.013307
      3 C_02         14.2010   -2.6281    1.3773 c5      1  lig       0.383051
      4 N_03         14.3777   -2.3568    2.6732 ng      1  lig      -0.753373
      5 N_04         15.2217   -2.9197    0.5738 nr      1  lig      -0.250809
      6 C_05         14.7965   -3.2519   -0.7875 c6      1  lig      -0.061786
      7 C_06         15.1409   -4.7334   -1.0690 c7      1  lig      -0.047639
      8 C_07         16.3619   -5.2517   -0.5871 c8      1  lig      -0.107725
      9 C_08         16.7322   -6.5909   -0.7921 c9      1  lig      -0.148266
     10 C_09         15.8605   -7.4582   -1.4613 cb      1  lig      -0.086191
     11 C_0a         14.6405   -6.9706   -1.9577 ci      1  lig      -0.148266
     12 C_0b         14.2904   -5.6173   -1.7762 cj      1  lig      -0.107725
     13 C_0c         15.3794   -2.2443   -1.7949 ck      1  lig       0.091583
     14 C_0d         15.9522   -2.6550   -3.0208 cm      1  lig      -0.134791
     15 C_0e         16.4340   -1.6937   -3.9273 cn      1  lig      -0.208327
     16 C_0f         16.3364   -0.3224   -3.6308 co      1  lig      -0.032196
     17 C_0g         15.7943    0.1250   -2.4073 cq      1  lig      -0.112658
     18 C_0h         15.6711    1.5693   -2.0915 cr      1  lig      -0.039458
     19 C_0i         15.3832    2.0354   -0.7903 cs      1  lig      -0.005816
     20 C_0j         15.3534    3.4188   -0.5357 ct      1  lig      -0.346186
     21 C_0k         15.5968    4.3049   -1.5946 cw      1  lig       0.312798
     22 N_0l         15.8275    3.8920   -2.8511 nw      1  lig      -0.565152
     23 C_0m         15.8598    2.5642   -3.0762 cA      1  lig       0.280542
     24 C_0n         15.3327   -0.8573   -1.5012 cB      1  lig      -0.096483
     25 C_0o         13.2767   -3.0094   -0.6368 cC      1  lig       0.403615
     26 O_0p         12.3981   -3.0674   -1.5055 o0      1  lig      -0.398290
     27 H_0q         10.9186   -2.8652    0.7627 h0      1  lig       0.094530
     28 H_0r         11.6549   -2.5324    2.3309 h6      1  lig       0.094530
     29 H_0s         11.5236   -1.2463    1.1212 h7      1  lig       0.094530
     30 H_0t         15.3227   -2.3603    3.0599 h8      1  lig       0.425989
     31 H_0u         16.2013   -2.9156    0.8573 h9      1  lig       0.336701
     32 H_0v         17.0269   -4.6213   -0.0258 hb      1  lig       0.139167
     33 H_0w         17.6766   -6.9514   -0.4085 hd      1  lig       0.159310
     34 H_0x         16.1303   -8.4936   -1.5737 he      1  lig       0.153322
     35 H_0y         13.9707   -7.6399   -2.4763 hf      1  lig       0.159310
     36 H_0z         13.3494   -5.2829   -2.1753 hg      1  lig       0.139167
     37 H_10         16.0279   -3.7000   -3.2902 hh      1  lig       0.182533
     38 H_11         16.8721   -2.0019   -4.8662 hi      1  lig       0.176018
     39 H_12         16.6873    0.3855   -4.3650 hj      1  lig       0.137503
     40 H_13         15.2242    1.3425    0.0224 hk      1  lig       0.125995
     41 H_14         15.1720    3.8040    0.4552 hl      1  lig       0.168086
     42 H_15         15.6063    5.3721   -1.4290 hm      1  lig       0.084971
     43 H_16         16.0319    2.2854   -4.1007 hq      1  lig       0.073450
     44 H_17         14.8915   -0.5357   -0.5697 hr      1  lig       0.072024
     45 H_18         13.6376   -2.0619    3.3080 ht      1  lig       0.425989
@<TRIPOS>BOND
     1     1     2    1
     2     1    27    1
     3     1    28    1
     4     1    29    1
     5     2     3    1
     6     2    25    1
     7     3     4    1
     8     3     5    2
     9     4    30    1
    10     4    45    1
    11     5     6    1
    12     5    31    1
    13     6     7    1
    14     6    13    1
    15     6    25    1
    16     7     8    2
    17     7    12    1
    18     8     9    1
    19     8    32    1
    20     9    10    2
    21     9    33    1
    22    10    11    1
    23    10    34    1
    24    11    12    2
    25    11    35    1
    26    12    36    1
    27    13    14    2
    28    13    24    1
    29    14    15    1
    30    14    37    1
    31    15    16    2
    32    15    38    1
    33    16    17    1
    34    16    39    1
    35    17    18    1
    36    17    24    2
    37    18    19    2
    38    18    23    1
    39    19    20    1
    40    19    40    1
    41    20    21    2
    42    20    41    1
    43    21    22    1
    44    21    42    1
    45    22    23    2
    46    23    43    1
    47    24    44    1
    48    25    26    2
