@<TRIPOS>MOLECULE
lig
  50   53 0 0 0
SMALL
NO_CHARGES


@<TRIPOS>ATOM
      1 C_00         14.8899    4.8693    1.3571 c4      1  lig       0.002380
      2 O_01         15.4910    3.6586    0.9338 o0      1  lig      -0.335766
      3 C_02         15.4559    3.3612   -0.4093 c5      1  lig       0.242623
      4 C_03         15.2031    4.3048   -1.4284 c6      1  lig      -0.121840
      5 C_04         15.2285    3.9017   -2.7752 c7      1  lig      -0.249901
      6 C_05         15.4668    2.5539   -3.1146 c8      1  lig      -0.125697
      7 C_06         15.6673    1.5796   -2.1106 c9      1  lig      -0.007170
      8 C_07         15.7986    0.1373   -2.4299 cb      1  lig      -0.009874
      9 C_08         16.3443   -0.3086   -3.6508 ci      1  lig      -0.048527
     10 C_09         16.4510   -1.6809   -3.9432 cj      1  lig      -0.232164
     11 C_0a         15.9729   -2.6431   -3.0346 ck      1  lig      -0.120262
     12 C_0b         15.3929   -2.2324   -1.8118 cm      1  lig       0.049724
     13 C_0c         14.8068   -3.2363   -0.8026 cn      1  lig      -0.039545
     14 C_0d         15.1478   -4.7199   -1.0797 co      1  lig      -0.034836
     15 C_0e         16.3640   -5.2427   -0.5907 cq      1  lig      -0.112661
     16 C_0f         16.7306   -6.5834   -0.7927 cr      1  lig      -0.150348
     17 C_0g         15.8591   -7.4486   -1.4649 cs      1  lig      -0.085867
     18 C_0h         14.6428   -6.9571   -1.9662 ct      1  lig      -0.150348
     19 C_0i         14.2970   -5.6023   -1.7883 cw      1  lig      -0.112661
     20 N_0j         15.2301   -2.9023    0.5590 n0      1  lig      -0.311532
     21 C_0k         14.2089   -2.6079    1.3610 cA      1  lig       0.411981
     22 N_0l         14.3832   -2.3403    2.6584 ng      1  lig      -0.771231
     23 N_0m         13.0407   -2.6284    0.7035 nr      1  lig       0.017431
     24 C_0n         11.7206   -2.2789    1.2434 cB      1  lig      -0.062209
     25 C_0o         13.2873   -2.9901   -0.6544 cC      1  lig       0.396583
     26 O_0p         12.4095   -3.0491   -1.5239 o1      1  lig      -0.400704
     27 C_0q         15.3375   -0.8450   -1.5242 cD      1  lig      -0.091941
     28 C_0r         15.6869    2.0224   -0.7698 cE      1  lig      -0.158377
     29 H_0s         14.8788    4.9111    2.4463 h0      1  lig       0.075147
     30 H_0t         15.4282    5.7406    0.9982 h6      1  lig       0.075147
     31 H_0u         13.8628    4.9310    1.0041 h7      1  lig       0.075147
     32 H_0v         15.0044    5.3416   -1.2030 h8      1  lig       0.130762
     33 H_0w         15.0424    4.6344   -3.5450 h9      1  lig       0.191074
     34 H_0x         15.4460    2.2647   -4.1552 hb      1  lig       0.132273
     35 H_0y         16.6912    0.4067   -4.3795 hd      1  lig       0.143692
     36 H_0z         16.8947   -1.9888   -4.8795 he      1  lig       0.180132
     37 H_10         16.0546   -3.6885   -3.3003 hf      1  lig       0.180742
     38 H_11         17.0284   -4.6144   -0.0264 hg      1  lig       0.142638
     39 H_12         17.6721   -6.9466   -0.4046 hh      1  lig       0.158905
     40 H_13         16.1254   -8.4852   -1.5758 hi      1  lig       0.151708
     41 H_14         13.9725   -7.6251   -2.4858 hj      1  lig       0.158905
     42 H_15         13.3587   -5.2647   -2.1904 hk      1  lig       0.142638
     43 H_16         16.2092   -2.9002    0.8445 hl      1  lig       0.361204
     44 H_17         13.6426   -2.0451    3.2923 hm      1  lig       0.429322
     45 H_18         10.9257   -2.8241    0.7338 hq      1  lig       0.088423
     46 H_19         11.6592   -2.5072    2.3069 hr      1  lig       0.088423
     47 H_1a         11.5441   -1.2128    1.1041 ht      1  lig       0.088423
     48 H_1b         14.8871   -0.5182   -0.5990 hu      1  lig       0.086097
     49 H_1c         15.8627    1.3168    0.0227 hv      1  lig       0.102615
     50 H_1d         15.3275   -2.3481    3.0471 hy      1  lig       0.429322
@<TRIPOS>BOND
     1     1     2    1
     2     1    29    1
     3     1    30    1
     4     1    31    1
     5     2     3    1
     6     3     4    2
     7     3    28    1
     8     4     5    1
     9     4    32    1
    10     5     6    2
    11     5    33    1
    12     6     7    1
    13     6    34    1
    14     7     8    1
    15     7    28    2
    16     8     9    2
    17     8    27    1
    18     9    10    1
    19     9    35    1
    20    10    11    2
    21    10    36    1
    22    11    12    1
    23    11    37    1
    24    12    13    1
    25    12    27    2
    26    13    14    1
    27    13    20    1
    28    13    25    1
    29    14    15    2
    30    14    19    1
    31    15    16    1
    32    15    38    1
    33    16    17    2
    34    16    39    1
    35    17    18    1
    36    17    40    1
    37    18    19    2
    38    18    41    1
    39    19    42    1
    40    20    21    2
    41    20    43    1
    42    21    22    1
    43    21    23    1
    44    22    44    1
    45    22    50    1
    46    23    24    1
    47    23    25    1
    48    24    45    1
    49    24    46    1
    50    24    47    1
    51    25    26    2
    52    27    48    1
    53    28    49    1
