@<TRIPOS>MOLECULE
lig
  49   52 0 0 0
SMALL
NO_CHARGES


@<TRIPOS>ATOM
      1 C_00         11.8157   -1.9869    1.1350 c4      1  lig      -0.081710
      2 N_01         13.0892   -2.4266    0.5571 n0      1  lig       0.120271
      3 C_02         14.2593   -2.5968    1.1965 c5      1  lig       0.211371
      4 N_03         14.4700   -2.4087    2.5072 ng      1  lig      -0.859354
      5 N_04         15.2262   -2.9956    0.3604 nr      1  lig      -0.048027
      6 C_05         14.7421   -3.1088   -1.0217 c6      1  lig      -0.011041
      7 C_06         15.3912   -2.0431   -1.9333 c7      1  lig      -0.021407
      8 C_07         15.9757   -2.3788   -3.1775 c8      1  lig      -0.064079
      9 C_08         16.4916   -1.3794   -4.0129 c9      1  lig      -0.206737
     10 C_09         16.3751   -0.0274   -3.6532 cb      1  lig      -0.081105
     11 C_0a         15.8017    0.3581   -2.4240 ci      1  lig      -0.020280
     12 C_0b         15.5995    1.7924   -2.0988 cj      1  lig       0.023732
     13 C_0c         15.3381    2.7307   -3.1262 ck      1  lig      -0.127249
     14 C_0d         15.0417    4.0765   -2.8331 cm      1  lig      -0.195062
     15 C_0e         15.0158    4.5162   -1.5001 cn      1  lig      -0.027691
     16 C_0f         15.3137    3.6154   -0.4660 co      1  lig      -0.082476
     17 Cl0g         15.3090    4.1775    1.1646 a0      1  lig      -0.087621
     18 C_0h         15.6022    2.2676   -0.7658 cq      1  lig      -0.014246
     19 C_0i         15.3586   -0.6707   -1.5583 cr      1  lig      -0.100852
     20 C_0j         14.8186   -4.5906   -1.5373 cs      1  lig       0.001909
     21 C_0k         16.1991   -5.2608   -1.5318 ct      1  lig       0.053740
     22 C_0l         15.9158   -6.7438   -1.7752 cw      1  lig      -0.010669
     23 C_0m         14.5202   -7.0043   -1.1990 cA      1  lig      -0.010669
     24 C_0n         13.9603   -5.6347   -0.7926 cB      1  lig       0.053740
     25 C_0o         13.2678   -2.7202   -0.8247 cC      1  lig       0.287744
     26 O_0p         12.3711   -2.6827   -1.6743 o0      1  lig      -0.391807
     27 H_0q         11.7133   -0.9107    1.0003 h0      1  lig       0.096895
     28 H_0r         10.9703   -2.4711    0.6458 h6      1  lig       0.096895
     29 H_0s         11.7672   -2.2188    2.1980 h7      1  lig       0.096895
     30 H_0t         13.7670   -2.0582    3.1557 h8      1  lig       0.464107
     31 H_0u         16.2091   -3.0726    0.6185 h9      1  lig       0.319513
     32 H_0v         16.0314   -3.3898   -3.5469 hb      1  lig       0.136175
     33 H_0w         16.9446   -1.6507   -4.9560 hd      1  lig       0.176595
     34 H_0x         16.7175    0.7188   -4.3522 he      1  lig       0.149371
     35 H_0y         15.3104    2.4107   -4.1575 hf      1  lig       0.142968
     36 H_0z         14.8046    4.7704   -3.6259 hg      1  lig       0.171556
     37 H_10         14.7669    5.5420   -1.2680 hh      1  lig       0.147383
     38 H_11         15.8209    1.5921    0.0436 hi      1  lig       0.100435
     39 H_12         14.9086   -0.3862   -0.6190 hj      1  lig       0.039360
     40 H_13         14.4542   -4.6004   -2.5656 hk      1  lig       0.084660
     41 H_14         16.8694   -4.8720   -2.2913 hl      1  lig      -0.010993
     42 H_15         16.6839   -5.1340   -0.5622 hm      1  lig      -0.010993
     43 H_16         15.9010   -6.9414   -2.8481 hq      1  lig       0.011658
     44 H_17         16.6784   -7.3836   -1.3290 hr      1  lig       0.011658
     45 H_18         13.8876   -7.4731   -1.9550 ht      1  lig       0.011658
     46 H_19         14.5574   -7.6812   -0.3442 hu      1  lig       0.011658
     47 H_1a         14.0657   -5.5161    0.2871 hv      1  lig      -0.010993
     48 H_1b         12.8984   -5.5578   -1.0319 hy      1  lig      -0.010993
     49 H_1c         15.4198   -2.4955    2.8755 hz      1  lig       0.464107
@<TRIPOS>BOND
     1     1     2    1
     2     1    27    1
     3     1    28    1
     4     1    29    1
     5     2     3    1
     6     2    25    1
     7     3     4    1
     8     3     5    2
     9     4    30    1
    10     4    49    1
    11     5     6    1
    12     5    31    1
    13     6     7    1
    14     6    20    1
    15     6    25    1
    16     7     8    2
    17     7    19    1
    18     8     9    1
    19     8    32    1
    20     9    10    2
    21     9    33    1
    22    10    11    1
    23    10    34    1
    24    11    12    1
    25    11    19    2
    26    12    13    2
    27    12    18    1
    28    13    14    1
    29    13    35    1
    30    14    15    2
    31    14    36    1
    32    15    16    1
    33    15    37    1
    34    16    17    1
    35    16    18    2
    36    18    38    1
    37    19    39    1
    38    20    21    1
    39    20    24    1
    40    20    40    1
    41    21    22    1
    42    21    41    1
    43    21    42    1
    44    22    23    1
    45    22    43    1
    46    22    44    1
    47    23    24    1
    48    23    45    1
    49    23    46    1
    50    24    47    1
    51    24    48    1
    52    25    26    2
