@<TRIPOS>MOLECULE
lig
  46   49 0 0 0
SMALL
NO_CHARGES


@<TRIPOS>ATOM
      1 C_00         11.8366   -2.0143    1.1169 c4      1  lig      -0.116112
      2 N_01         13.1188   -2.4437    0.5483 n0      1  lig      -0.000072
      3 C_02         14.2835   -2.6029    1.1994 c5      1  lig       0.345607
      4 N_03         14.4756   -2.4186    2.5137 ng      1  lig      -0.787345
      5 N_04         15.2647   -2.9842    0.3717 nr      1  lig      -0.187073
      6 C_05         14.8037   -3.0771   -1.0176 c6      1  lig      -0.115466
      7 C_06         15.4609   -2.0005   -1.9043 c7      1  lig      -0.023703
      8 C_07         16.1507   -2.3399   -3.0923 c8      1  lig      -0.130652
      9 C_08         16.6412   -1.3353   -3.9384 c9      1  lig      -0.175745
     10 C_09         16.4312    0.0173   -3.6223 cb      1  lig      -0.078920
     11 C_0a         15.8006    0.4013   -2.4216 ci      1  lig      -0.010362
     12 C_0b         15.5617    1.8313   -2.1119 cj      1  lig      -0.000578
     13 C_0c         15.2806    2.7552   -3.1459 ck      1  lig      -0.114202
     14 C_0d         14.9680    4.0995   -2.8611 cm      1  lig      -0.199747
     15 C_0e         14.9450    4.5495   -1.5306 cn      1  lig      -0.030858
     16 C_0f         15.2585    3.6600   -0.4907 co      1  lig      -0.050237
     17 Cl0g         15.2530    4.2287    1.1379 a0      1  lig      -0.096695
     18 C_0h         15.5642    2.3147   -0.7822 cq      1  lig      -0.020490
     19 C_0i         15.3492   -0.6258   -1.5607 cr      1  lig      -0.059593
     20 C_0j         14.9081   -4.5247   -1.5628 cs      1  lig      -0.034223
     21 C_0k         16.2085   -5.3448   -1.4851 ct      1  lig      -0.005085
     22 C_0l         15.3498   -6.6076   -1.3805 cw      1  lig      -0.142221
     23 C_0m         14.2260   -5.7116   -0.8517 cA      1  lig      -0.005085
     24 C_0n         13.3175   -2.7297   -0.8331 cB      1  lig       0.449619
     25 O_0o         12.4290   -2.7005   -1.6920 o0      1  lig      -0.410611
     26 H_0p         10.9979   -2.4909    0.6089 h0      1  lig       0.106732
     27 H_0q         11.7343   -0.9359    1.0001 h6      1  lig       0.106732
     28 H_0r         11.7740   -2.2620    2.1758 h7      1  lig       0.106732
     29 H_0s         13.7626   -2.0742    3.1546 h8      1  lig       0.439588
     30 H_0t         16.2456   -3.0537    0.6408 h9      1  lig       0.337886
     31 H_0u         16.3017   -3.3615   -3.4049 hb      1  lig       0.164881
     32 H_0v         17.1519   -1.6038   -4.8532 hd      1  lig       0.172728
     33 H_0w         16.7592    0.7670   -4.3239 he      1  lig       0.146796
     34 H_0x         15.2563    2.4232   -4.1736 hf      1  lig       0.145744
     35 H_0y         14.7191    4.7841   -3.6584 hg      1  lig       0.173422
     36 H_0z         14.6860    5.5743   -1.3054 hh      1  lig       0.146159
     37 H_10         15.7996    1.6478    0.0301 hi      1  lig       0.080301
     38 H_11         14.8418   -0.3405   -0.6514 hj      1  lig       0.072822
     39 H_12         14.5534   -4.5487   -2.5962 hk      1  lig       0.125060
     40 H_13         16.7847   -5.1575   -0.5771 hl      1  lig       0.022062
     41 H_14         16.8343   -5.3103   -2.3764 hm      1  lig       0.022062
     42 H_15         15.1204   -7.0484   -2.3536 hq      1  lig       0.073215
     43 H_16         15.7159   -7.3538   -0.6741 hr      1  lig       0.073215
     44 H_17         14.2345   -5.6344    0.2373 ht      1  lig       0.022062
     45 H_18         13.2338   -5.9638   -1.2299 hu      1  lig       0.022062
     46 H_19         15.4219   -2.4979    2.8926 hv      1  lig       0.439588
@<TRIPOS>BOND
     1     1     2    1
     2     1    26    1
     3     1    27    1
     4     1    28    1
     5     2     3    1
     6     2    24    1
     7     3     4    1
     8     3     5    2
     9     4    29    1
    10     4    46    1
    11     5     6    1
    12     5    30    1
    13     6     7    1
    14     6    20    1
    15     6    24    1
    16     7     8    2
    17     7    19    1
    18     8     9    1
    19     8    31    1
    20     9    10    2
    21     9    32    1
    22    10    11    1
    23    10    33    1
    24    11    12    1
    25    11    19    2
    26    12    13    2
    27    12    18    1
    28    13    14    1
    29    13    34    1
    30    14    15    2
    31    14    35    1
    32    15    16    1
    33    15    36    1
    34    16    17    1
    35    16    18    2
    36    18    37    1
    37    19    38    1
    38    20    21    1
    39    20    23    1
    40    20    39    1
    41    21    22    1
    42    21    40    1
    43    21    41    1
    44    22    23    1
    45    22    42    1
    46    22    43    1
    47    23    44    1
    48    23    45    1
    49    24    25    2
