@<TRIPOS>MOLECULE
lig
  46   49 0 0 0
SMALL
NO_CHARGES


@<TRIPOS>ATOM
      1 C_00         14.8618    4.8350    1.1620 c4      1  lig       0.001595
      2 O_01         15.5063    3.6190    0.8241 o0      1  lig      -0.343941
      3 C_02         15.5034    3.2547   -0.5041 c5      1  lig       0.150271
      4 C_03         15.3203    4.1381   -1.5911 c6      1  lig       0.199185
      5 N_04         15.3573    3.7398   -2.8754 n0      1  lig      -0.525320
      6 C_05         15.5484    2.4300   -3.1296 c7      1  lig       0.160919
      7 C_06         15.7091    1.4388   -2.1356 c8      1  lig      -0.049150
      8 C_07         15.8420   -0.0010   -2.4606 c9      1  lig      -0.040969
      9 C_08         16.3311   -0.4075   -3.7129 cb      1  lig      -0.071357
     10 C_09         16.3915   -1.7640   -4.0583 ci      1  lig      -0.224988
     11 C_0a         15.9457   -2.7515   -3.1643 cj      1  lig      -0.033071
     12 C_0b         15.4719   -2.3986   -1.8776 ck      1  lig       0.018404
     13 C_0c         14.9084   -3.4068   -0.8336 cm      1  lig      -0.044541
     14 C_0d         15.1744   -4.9292   -0.9309 cn      1  lig      -0.126791
     15 C_0e         14.8727   -5.7780   -2.1409 co      1  lig      -0.231286
     16 C_0f         16.2960   -5.6354   -1.6617 cq      1  lig      -0.231286
     17 N_0g         15.3119   -3.0245    0.5181 ng      1  lig      -0.381416
     18 C_0h         14.2748   -2.7106    1.2950 cr      1  lig       0.447282
     19 N_0i         14.4147   -2.3941    2.5875 nr      1  lig      -0.842555
     20 N_0j         13.1175   -2.7746    0.6184 nw      1  lig       0.075737
     21 C_0k         11.7851   -2.4926    1.1586 cs      1  lig      -0.042299
     22 C_0l         13.3894   -3.1875   -0.7204 ct      1  lig       0.315992
     23 O_0m         12.5284   -3.3363   -1.5934 o1      1  lig      -0.381282
     24 C_0n         15.4440   -1.0125   -1.5544 cw      1  lig      -0.082626
     25 C_0o         15.7028    1.8991   -0.8055 cA      1  lig      -0.095341
     26 H_0p         14.8380    4.9423    2.2474 h0      1  lig       0.077776
     27 H_0q         15.3759    5.6992    0.7519 h6      1  lig       0.077776
     28 H_0r         13.8375    4.8355    0.7946 h7      1  lig       0.077776
     29 H_0s         15.1541    5.1939   -1.4430 h8      1  lig       0.093531
     30 H_0t         15.5345    2.1696   -4.1770 h9      1  lig       0.099538
     31 H_0u         16.6513    0.3205   -4.4416 hb      1  lig       0.155212
     32 H_0v         16.7660   -2.0344   -5.0341 hd      1  lig       0.176276
     33 H_0w         15.9804   -3.7597   -3.5293 he      1  lig       0.142768
     34 H_0x         14.9009   -5.4265   -0.0010 hf      1  lig       0.165612
     35 H_0y         14.3799   -6.7349   -1.9832 hg      1  lig       0.141696
     36 H_0z         14.5834   -5.2655   -3.0454 hh      1  lig       0.141696
     37 H_10         16.9751   -5.0800   -2.2915 hi      1  lig       0.141696
     38 H_11         16.7462   -6.4903   -1.1620 hj      1  lig       0.141696
     39 H_12         16.2886   -2.9965    0.8161 hk      1  lig       0.388777
     40 H_13         13.6579   -2.0901    3.1972 hl      1  lig       0.451191
     41 H_14         11.0202   -2.4653    0.3819 hm      1  lig       0.082102
     42 H_15         11.5052   -3.2432    1.8970 hq      1  lig       0.082102
     43 H_16         11.8047   -1.5231    1.6422 hr      1  lig       0.082102
     44 H_17         15.0485   -0.7087   -0.5980 ht      1  lig       0.082114
     45 H_18         15.8443    1.2081    0.0055 hu      1  lig       0.126206
     46 H_19         15.3520   -2.3780    2.9947 hv      1  lig       0.451191
@<TRIPOS>BOND
     1     1     2    1
     2     1    26    1
     3     1    27    1
     4     1    28    1
     5     2     3    1
     6     3     4    2
     7     3    25    1
     8     4     5    1
     9     4    29    1
    10     5     6    2
    11     6     7    1
    12     6    30    1
    13     7     8    1
    14     7    25    2
    15     8     9    2
    16     8    24    1
    17     9    10    1
    18     9    31    1
    19    10    11    2
    20    10    32    1
    21    11    12    1
    22    11    33    1
    23    12    13    1
    24    12    24    2
    25    13    14    1
    26    13    17    1
    27    13    22    1
    28    14    15    1
    29    14    16    1
    30    14    34    1
    31    15    16    1
    32    15    35    1
    33    15    36    1
    34    16    37    1
    35    16    38    1
    36    17    18    2
    37    17    39    1
    38    18    19    1
    39    18    20    1
    40    19    40    1
    41    19    46    1
    42    20    21    1
    43    20    22    1
    44    21    41    1
    45    21    42    1
    46    21    43    1
    47    22    23    2
    48    24    44    1
    49    25    45    1
