@<TRIPOS>MOLECULE
lig
  44   47 0 0 0
SMALL
NO_CHARGES


@<TRIPOS>ATOM
      1 C_00         11.7505   -2.1054    1.1746 c4      1  lig      -0.082138
      2 N_01         13.0754   -2.4192    0.6266 n0      1  lig       0.049479
      3 C_02         14.2390   -2.4823    1.2955 c5      1  lig       0.287746
      4 N_03         14.4006   -2.3325    2.6153 ng      1  lig      -0.742873
      5 N_04         15.2678   -2.7183    0.4810 nr      1  lig      -0.081659
      6 C_05         14.8335   -2.9708   -0.8899 c6      1  lig      -0.080519
      7 C_06         15.4350   -1.9353   -1.8793 c7      1  lig      -0.006008
      8 C_07         15.9253   -2.2767   -3.1639 c8      1  lig      -0.021157
      9 C_08         16.4040   -1.2874   -4.0316 c9      1  lig      -0.249892
     10 C_09         16.3188    0.0686   -3.6777 cb      1  lig      -0.066196
     11 C_0a         15.8043    0.4637   -2.4251 ci      1  lig      -0.018530
     12 C_0b         15.5944    1.8953   -2.0972 cj      1  lig       0.011782
     13 C_0c         15.2922    2.8269   -3.1186 ck      1  lig      -0.112555
     14 C_0d         14.9797    4.1676   -2.8198 cm      1  lig      -0.201753
     15 C_0e         14.9709    4.6063   -1.4854 cn      1  lig      -0.040561
     16 C_0f         15.3020    3.7099   -0.4571 co      1  lig      -0.053092
     17 Cl0g         15.2993    4.2576    1.1787 a0      1  lig      -0.099330
     18 C_0h         15.6141    2.3700   -0.7636 cq      1  lig      -0.023854
     19 C_0i         15.4167   -0.5574   -1.5263 cr      1  lig      -0.116290
     20 C_0j         15.0325   -4.4912   -1.1330 cs      1  lig       0.672078
     21 N_0k         14.1933   -5.3344   -0.5177 nw      1  lig      -0.515163
     22 C_0l         14.3980   -6.6537   -0.6631 ct      1  lig       0.162953
     23 C_0m         15.4737   -7.1474   -1.4002 cw      1  lig      -0.205860
     24 C_0n         16.3282   -6.1963   -1.9576 cA      1  lig       0.162953
     25 N_0o         16.1149   -4.8884   -1.7939 nA      1  lig      -0.515163
     26 C_0p         13.3292   -2.6538   -0.7567 cB      1  lig       0.380621
     27 O_0q         12.4696   -2.5729   -1.6463 o0      1  lig      -0.406433
     28 H_0r         10.9706   -2.6750    0.6661 h0      1  lig       0.095122
     29 H_0s         11.6995   -2.3376    2.2387 h6      1  lig       0.095122
     30 H_0t         11.5418   -1.0440    1.0335 h7      1  lig       0.095122
     31 H_0u         15.3413   -2.3802    3.0106 h8      1  lig       0.430966
     32 H_0v         16.2384   -2.8277    0.7732 h9      1  lig       0.216753
     33 H_0w         15.9512   -3.2887   -3.5363 hb      1  lig       0.131789
     34 H_0x         16.8058   -1.5771   -4.9912 hd      1  lig       0.183672
     35 H_0y         16.6347    0.8051   -4.4004 he      1  lig       0.146329
     36 H_0z         15.2450    2.5045   -4.1481 hf      1  lig       0.136484
     37 H_10         14.7178    4.8557   -3.6102 hg      1  lig       0.171784
     38 H_11         14.7085    5.6275   -1.2482 hh      1  lig       0.147090
     39 H_12         15.8539    1.7016    0.0459 hi      1  lig       0.105887
     40 H_13         15.0131   -0.2646   -0.5696 hj      1  lig       0.069934
     41 H_14         13.6949   -7.3190   -0.1836 hk      1  lig       0.152721
     42 H_15         15.6326   -8.2070   -1.5234 hl      1  lig       0.148952
     43 H_16         17.1962   -6.4808   -2.5297 hm      1  lig       0.152721
     44 H_17         13.6599   -2.0568    3.2578 hq      1  lig       0.430966
@<TRIPOS>BOND
     1     1     2    1
     2     1    28    1
     3     1    29    1
     4     1    30    1
     5     2     3    1
     6     2    26    1
     7     3     4    1
     8     3     5    2
     9     4    31    1
    10     4    44    1
    11     5     6    1
    12     5    32    1
    13     6     7    1
    14     6    20    1
    15     6    26    1
    16     7     8    2
    17     7    19    1
    18     8     9    1
    19     8    33    1
    20     9    10    2
    21     9    34    1
    22    10    11    1
    23    10    35    1
    24    11    12    1
    25    11    19    2
    26    12    13    2
    27    12    18    1
    28    13    14    1
    29    13    36    1
    30    14    15    2
    31    14    37    1
    32    15    16    1
    33    15    38    1
    34    16    17    1
    35    16    18    2
    36    18    39    1
    37    19    40    1
    38    20    21    2
    39    20    25    1
    40    21    22    1
    41    22    23    2
    42    22    41    1
    43    23    24    1
    44    23    42    1
    45    24    25    2
    46    24    43    1
    47    26    27    2
