@<TRIPOS>MOLECULE
lig
  50   53 0 0 0
SMALL
NO_CHARGES


@<TRIPOS>ATOM
      1 C_00         12.5711    5.3513   -2.7657 c4      1  lig       0.015117
      2 O_01         13.7081    5.1549   -1.9289 o0      1  lig      -0.342138
      3 C_02         14.3525    3.9582   -2.1070 c5      1  lig       0.327822
      4 C_03         14.8801    3.2992   -0.9813 c6      1  lig      -0.232172
      5 C_04         15.4000    1.9956   -1.1053 c7      1  lig      -0.138729
      6 C_05         15.4241    1.3431   -2.3579 c8      1  lig      -0.015693
      7 C_06         15.7606   -0.0825   -2.4958 c9      1  lig      -0.006028
      8 C_07         16.4104   -0.5580   -3.6479 cb      1  lig      -0.052008
      9 C_08         16.5936   -1.9307   -3.8581 ci      1  lig      -0.237018
     10 C_09         16.0899   -2.8628   -2.9346 cj      1  lig      -0.107673
     11 C_0a         15.4302   -2.4158   -1.7641 ck      1  lig       0.047903
     12 C_0b         14.8180   -3.3955   -0.7510 cm      1  lig      -0.041445
     13 C_0c         15.1632   -4.8768   -1.0176 cn      1  lig      -0.055207
     14 C_0d         14.3265   -5.7683   -1.7334 co      1  lig      -0.106098
     15 C_0e         14.7023   -7.1138   -1.9228 cq      1  lig      -0.149115
     16 C_0f         15.9322   -7.5796   -1.4262 cr      1  lig      -0.096755
     17 C_0g         16.7922   -6.7001   -0.7600 cs      1  lig      -0.149115
     18 C_0h         16.3964   -5.3713   -0.5455 ct      1  lig      -0.106098
     19 N_0i         15.2313   -3.0387    0.6068 n0      1  lig      -0.293498
     20 C_0j         14.2081   -2.6970    1.3866 cw      1  lig       0.424951
     21 N_0k         14.3761   -2.3746    2.6722 ng      1  lig      -0.784468
     22 N_0l         13.0452   -2.7268    0.7206 nr      1  lig       0.005300
     23 C_0m         11.7303   -2.3304    1.2406 cA      1  lig      -0.085767
     24 C_0n         13.2977   -3.1408   -0.6221 cB      1  lig       0.419952
     25 O_0o         12.4259   -3.2223   -1.4953 o1      1  lig      -0.407379
     26 C_0p         15.3168   -1.0203   -1.5415 cC      1  lig      -0.122948
     27 C_0q         15.0015    2.0596   -3.4966 cD      1  lig      -0.138729
     28 C_0r         14.4602    3.3469   -3.3731 cE      1  lig      -0.232172
     29 H_0s         11.9724    6.1855   -2.4058 h0      1  lig       0.074010
     30 H_0t         12.8593    5.5867   -3.7903 h6      1  lig       0.074010
     31 H_0u         11.9234    4.4734   -2.7734 h7      1  lig       0.074010
     32 H_0v         14.8193    3.7674   -0.0099 h8      1  lig       0.151081
     33 H_0w         15.7378    1.4794   -0.2207 h9      1  lig       0.144569
     34 H_0x         16.7419    0.1377   -4.4013 hb      1  lig       0.143555
     35 H_0y         17.0959   -2.2498   -4.7563 hd      1  lig       0.179754
     36 H_0z         16.2160   -3.9144   -3.1523 he      1  lig       0.177867
     37 H_10         13.3830   -5.4459   -2.1401 hf      1  lig       0.139189
     38 H_11         14.0449   -7.7904   -2.4492 hg      1  lig       0.161014
     39 H_12         16.2289   -8.6066   -1.5336 hh      1  lig       0.156547
     40 H_13         17.7478   -7.0430   -0.3881 hi      1  lig       0.161014
     41 H_14         17.0549   -4.7250    0.0063 hj      1  lig       0.139189
     42 H_15         16.2103   -3.0095    0.8918 hk      1  lig       0.351449
     43 H_16         13.6321   -2.0604    3.2929 hl      1  lig       0.432646
     44 H_17         10.9201   -2.8078    0.6888 hm      1  lig       0.095491
     45 H_18         11.6300   -2.5995    2.2917 hq      1  lig       0.095491
     46 H_19         11.6158   -1.2514    1.1443 hr      1  lig       0.095491
     47 H_1a         14.8061   -0.6509   -0.6635 ht      1  lig       0.084535
     48 H_1b         15.0098    1.5949   -4.4724 hu      1  lig       0.144569
     49 H_1c         14.0883    3.8355   -4.2589 hv      1  lig       0.151081
     50 H_1d         15.3185   -2.3684    3.0651 hy      1  lig       0.432646
@<TRIPOS>BOND
     1     1     2    1
     2     1    29    1
     3     1    30    1
     4     1    31    1
     5     2     3    1
     6     3     4    2
     7     3    28    1
     8     4     5    1
     9     4    32    1
    10     5     6    2
    11     5    33    1
    12     6     7    1
    13     6    27    1
    14     7     8    2
    15     7    26    1
    16     8     9    1
    17     8    34    1
    18     9    10    2
    19     9    35    1
    20    10    11    1
    21    10    36    1
    22    11    12    1
    23    11    26    2
    24    12    13    1
    25    12    19    1
    26    12    24    1
    27    13    14    2
    28    13    18    1
    29    14    15    1
    30    14    37    1
    31    15    16    2
    32    15    38    1
    33    16    17    1
    34    16    39    1
    35    17    18    2
    36    17    40    1
    37    18    41    1
    38    19    20    2
    39    19    42    1
    40    20    21    1
    41    20    22    1
    42    21    43    1
    43    21    50    1
    44    22    23    1
    45    22    24    1
    46    23    44    1
    47    23    45    1
    48    23    46    1
    49    24    25    2
    50    26    47    1
    51    27    28    2
    52    27    48    1
    53    28    49    1
