@<TRIPOS>MOLECULE
lig
  45   48 0 0 0
SMALL
NO_CHARGES


@<TRIPOS>ATOM
      1 C_00         11.7084   -2.3338    1.2794 c4      1  lig      -0.066400
      2 N_01         13.0266   -2.6810    0.7326 n0      1  lig       0.000822
      3 C_02         14.1992   -2.6485    1.3818 c5      1  lig       0.407327
      4 N_03         14.3805   -2.3629    2.6740 ng      1  lig      -0.763146
      5 N_04         15.2171   -2.9463    0.5767 nr      1  lig      -0.264632
      6 C_05         14.7859   -3.2915   -0.7797 c6      1  lig      -0.050862
      7 C_06         15.1324   -4.7732   -1.0532 c7      1  lig      -0.039582
      8 C_07         16.3613   -5.2807   -0.5804 c8      1  lig      -0.113443
      9 C_08         16.7387   -6.6176   -0.7849 c9      1  lig      -0.150007
     10 C_09         15.8669   -7.4924   -1.4441 cb      1  lig      -0.084399
     11 C_0a         14.6403   -7.0146   -1.9346 ci      1  lig      -0.150007
     12 C_0b         14.2822   -5.6634   -1.7534 cj      1  lig      -0.113443
     13 C_0c         15.3657   -2.2949   -1.7994 ck      1  lig       0.066357
     14 C_0d         15.9428   -2.7229   -3.0177 cm      1  lig      -0.127378
     15 C_0e         16.4289   -1.7756   -3.9354 cn      1  lig      -0.206091
     16 C_0f         16.3313   -0.4018   -3.6588 co      1  lig      -0.040352
     17 C_0g         15.7806    0.0634   -2.4467 cq      1  lig      -0.087770
     18 C_0h         15.6535    1.5125   -2.1627 cr      1  lig      -0.073485
     19 C_0i         15.5223    2.4731   -3.1915 cs      1  lig       0.238641
     20 N_0j         15.3349    3.7923   -2.9798 nw      1  lig      -0.533089
     21 C_0k         15.2791    4.2298   -1.7075 ct      1  lig       0.213776
     22 C_0l         15.4382    3.3818   -0.6010 cw      1  lig       0.087847
     23 F_0m         15.3969    3.8651    0.6639 f0      1  lig      -0.181105
     24 C_0n         15.6332    2.0125   -0.8425 cA      1  lig      -0.053980
     25 C_0o         15.3159   -0.9039   -1.5258 cB      1  lig      -0.079706
     26 C_0p         13.2665   -3.0500   -0.6247 cC      1  lig       0.407307
     27 O_0q         12.3849   -3.1140   -1.4898 o0      1  lig      -0.398220
     28 H_0r         11.6546   -2.5575    2.3444 h0      1  lig       0.092270
     29 H_0s         11.5253   -1.2693    1.1369 h6      1  lig       0.092270
     30 H_0t         10.9127   -2.8852    0.7778 h7      1  lig       0.092270
     31 H_0u         15.3266   -2.3640    3.0584 h8      1  lig       0.428277
     32 H_0v         16.1979   -2.9384    0.8564 h9      1  lig       0.338126
     33 H_0w         17.0279   -4.6431   -0.0286 hb      1  lig       0.141272
     34 H_0x         17.6887   -6.9709   -0.4083 hd      1  lig       0.161403
     35 H_0y         16.1441   -8.5259   -1.5531 he      1  lig       0.153587
     36 H_0z         13.9717   -7.6887   -2.4493 hf      1  lig       0.161403
     37 H_10         13.3373   -5.3355   -2.1499 hg      1  lig       0.141272
     38 H_11         16.0205   -3.7712   -3.2733 hh      1  lig       0.183282
     39 H_12         16.8708   -2.0939   -4.8684 hi      1  lig       0.177363
     40 H_13         16.6871    0.2931   -4.4026 hj      1  lig       0.143106
     41 H_14         15.5278    2.1752   -4.2289 hk      1  lig       0.090343
     42 H_15         15.1001    5.2853   -1.5665 hl      1  lig       0.118820
     43 H_16         15.7726    1.3513   -0.0059 hm      1  lig       0.142517
     44 H_17         14.8706   -0.5694   -0.6006 hq      1  lig       0.069162
     45 H_18         13.6417   -2.0667    3.3098 hr      1  lig       0.428277
@<TRIPOS>BOND
     1     1     2    1
     2     1    28    1
     3     1    29    1
     4     1    30    1
     5     2     3    1
     6     2    26    1
     7     3     4    1
     8     3     5    2
     9     4    31    1
    10     4    45    1
    11     5     6    1
    12     5    32    1
    13     6     7    1
    14     6    13    1
    15     6    26    1
    16     7     8    2
    17     7    12    1
    18     8     9    1
    19     8    33    1
    20     9    10    2
    21     9    34    1
    22    10    11    1
    23    10    35    1
    24    11    12    2
    25    11    36    1
    26    12    37    1
    27    13    14    2
    28    13    25    1
    29    14    15    1
    30    14    38    1
    31    15    16    2
    32    15    39    1
    33    16    17    1
    34    16    40    1
    35    17    18    1
    36    17    25    2
    37    18    19    2
    38    18    24    1
    39    19    20    1
    40    19    41    1
    41    20    21    2
    42    21    22    1
    43    21    42    1
    44    22    23    1
    45    22    24    2
    46    24    43    1
    47    25    44    1
    48    26    27    2
