@<TRIPOS>MOLECULE
lig
  45   48 0 0 0
SMALL
NO_CHARGES


@<TRIPOS>ATOM
      1 C_00         11.6799   -2.2515    1.3709 c4      1  lig      -0.068756
      2 N_01         12.9871   -2.4645    0.7394 n0      1  lig       0.001316
      3 C_02         14.1849   -2.5408    1.3426 c5      1  lig       0.400799
      4 N_03         14.4085   -2.4164    2.6556 ng      1  lig      -0.761106
      5 N_04         15.1680   -2.7715    0.4653 nr      1  lig      -0.284536
      6 C_05         14.6502   -2.9656   -0.8909 c6      1  lig      -0.052935
      7 C_06         14.8475   -4.4552   -1.2486 c7      1  lig      -0.039877
      8 C_07         13.8636   -5.4580   -1.0220 c8      1  lig      -0.107049
      9 C_08         14.1122   -6.8048   -1.3507 c9      1  lig      -0.151936
     10 C_09         15.3438   -7.1712   -1.9163 cb      1  lig      -0.089138
     11 C_0a         16.3455   -6.2032   -2.0969 ci      1  lig      -0.151936
     12 C_0b         16.1027   -4.8702   -1.7351 cj      1  lig      -0.107049
     13 C_0c         15.2192   -1.9235   -1.8834 ck      1  lig       0.105762
     14 C_0d         15.5984   -2.2557   -3.2072 cm      1  lig      -0.140652
     15 C_0e         16.1188   -1.2726   -4.0620 cn      1  lig      -0.181790
     16 C_0f         16.1734    0.0730   -3.6556 co      1  lig      -0.050077
     17 C_0g         15.7349    0.4623   -2.3714 cq      1  lig      -0.137673
     18 C_0h         15.6381    1.8956   -1.9854 cr      1  lig       0.513731
     19 C_0i         15.6686    2.3241   -0.6448 cs      1  lig      -0.317824
     20 C_0j         15.3940    3.6637   -0.3351 ct      1  lig      -0.036223
     21 C_0k         15.0983    4.5443   -1.3837 cw      1  lig      -0.251008
     22 C_0l         15.1361    4.0514   -2.6961 cA      1  lig       0.222647
     23 N_0m         15.4016    2.7638   -2.9930 nw      1  lig      -0.541902
     24 C_0n         15.3176   -0.5642   -1.4872 cB      1  lig      -0.136712
     25 C_0o         13.1637   -2.6425   -0.6619 cC      1  lig       0.423226
     26 O_0p         12.2501   -2.5949   -1.4964 o0      1  lig      -0.405095
     27 H_0q         11.7437   -2.3618    2.4529 h0      1  lig       0.091988
     28 H_0r         11.3123   -1.2542    1.1296 h6      1  lig       0.091988
     29 H_0s         10.9552   -2.9810    1.0088 h7      1  lig       0.091988
     30 H_0t         15.3668   -2.4681    3.0041 h8      1  lig       0.426632
     31 H_0u         16.1551   -2.8599    0.7041 h9      1  lig       0.348038
     32 H_0v         12.9016   -5.2397   -0.5855 hb      1  lig       0.134935
     33 H_0w         13.3537   -7.5586   -1.1781 hd      1  lig       0.161097
     34 H_0x         15.5208   -8.1951   -2.1987 he      1  lig       0.153873
     35 H_0y         17.3016   -6.4672   -2.5163 hf      1  lig       0.161097
     36 H_0z         16.8780   -4.1347   -1.8690 hg      1  lig       0.134935
     37 H_10         15.5199   -3.2608   -3.5989 hh      1  lig       0.177309
     38 H_11         16.4500   -1.5558   -5.0471 hi      1  lig       0.168940
     39 H_12         16.5221    0.8208   -4.3560 hj      1  lig       0.146852
     40 H_13         15.8684    1.6239    0.1454 hk      1  lig       0.135533
     41 H_14         15.3941    4.0062    0.6886 hl      1  lig       0.156003
     42 H_15         14.8564    5.5796   -1.1863 hm      1  lig       0.154225
     43 H_16         14.9279    4.7142   -3.5247 hq      1  lig       0.101403
     44 H_17         14.9877   -0.2835   -0.5003 hr      1  lig       0.082325
     45 H_18         13.6998   -2.1133    3.3230 ht      1  lig       0.426632
@<TRIPOS>BOND
     1     1     2    1
     2     1    27    1
     3     1    28    1
     4     1    29    1
     5     2     3    1
     6     2    25    1
     7     3     4    1
     8     3     5    2
     9     4    30    1
    10     4    45    1
    11     5     6    1
    12     5    31    1
    13     6     7    1
    14     6    13    1
    15     6    25    1
    16     7     8    2
    17     7    12    1
    18     8     9    1
    19     8    32    1
    20     9    10    2
    21     9    33    1
    22    10    11    1
    23    10    34    1
    24    11    12    2
    25    11    35    1
    26    12    36    1
    27    13    14    2
    28    13    24    1
    29    14    15    1
    30    14    37    1
    31    15    16    2
    32    15    38    1
    33    16    17    1
    34    16    39    1
    35    17    18    1
    36    17    24    2
    37    18    19    2
    38    18    23    1
    39    19    20    1
    40    19    40    1
    41    20    21    2
    42    20    41    1
    43    21    22    1
    44    21    42    1
    45    22    23    2
    46    22    43    1
    47    24    44    1
    48    25    26    2
