@<TRIPOS>MOLECULE
lig
  45   48 0 0 0
SMALL
NO_CHARGES


@<TRIPOS>ATOM
      1 C_00         11.7400   -2.2126    1.2313 c4      1  lig      -0.046982
      2 N_01         13.0684   -2.5561    0.7089 n0      1  lig       0.034982
      3 C_02         14.2256   -2.5677    1.3847 c5      1  lig       0.416428
      4 N_03         14.3832   -2.3337    2.6889 ng      1  lig      -0.766051
      5 N_04         15.2563   -2.8608    0.5934 nr      1  lig      -0.291740
      6 C_05         14.8533   -3.1586   -0.7802 c6      1  lig      -0.102470
      7 C_06         15.1438   -4.6467   -1.0923 c7      1  lig       0.051091
      8 C_07         14.2637   -5.4798   -1.8166 c8      1  lig      -0.015237
      9 C_08         14.5645   -6.8432   -1.9699 c9      1  lig      -0.319544
     10 C_09         15.7571   -7.3361   -1.4317 cb      1  lig       0.303707
     11 N_0a         16.6213   -6.5577   -0.7672 nw      1  lig      -0.550536
     12 C_0b         16.3169   -5.2546   -0.6052 ci      1  lig       0.229608
     13 C_0c         15.4647   -2.1399   -1.7601 cj      1  lig      -0.063285
     14 C_0d         16.0954   -2.5444   -2.9592 ck      1  lig      -0.116500
     15 C_0e         16.5717   -1.5778   -3.8628 cm      1  lig      -0.182103
     16 C_0f         16.4066   -0.2072   -3.5903 cn      1  lig      -0.076654
     17 C_0g         15.8150    0.2377   -2.3895 co      1  lig      -0.012071
     18 C_0h         15.6040    1.6830   -2.1188 cq      1  lig       0.004340
     19 C_0i         15.3466    2.5922   -3.1729 cr      1  lig      -0.105020
     20 C_0j         15.0379    3.9438   -2.9130 cs      1  lig      -0.206993
     21 C_0k         15.0066    4.4209   -1.5932 ct      1  lig      -0.021518
     22 C_0l         15.3052    3.5500   -0.5350 cw      1  lig      -0.045394
     23 Cl0m         15.2910    4.1515    1.0816 a0      1  lig      -0.095879
     24 C_0n         15.6001    2.1968   -0.7994 cA      1  lig      -0.042394
     25 C_0o         15.3711   -0.7498   -1.4798 cB      1  lig      -0.047944
     26 C_0p         13.3361   -2.8874   -0.6508 cC      1  lig       0.347827
     27 O_0q         12.4745   -2.9293   -1.5356 o0      1  lig      -0.386724
     28 H_0r         11.5520   -1.1511    1.0727 h0      1  lig       0.086642
     29 H_0s         10.9569   -2.7751    0.7224 h6      1  lig       0.086642
     30 H_0t         11.6699   -2.4254    2.2974 h7      1  lig       0.086642
     31 H_0u         15.3226   -2.3540    3.0886 h8      1  lig       0.429427
     32 H_0v         16.2325   -2.8545    0.8935 h9      1  lig       0.353905
     33 H_0w         13.3408   -5.1092   -2.2189 hb      1  lig       0.167983
     34 H_0x         13.8937   -7.5087   -2.4902 hd      1  lig       0.176940
     35 H_0y         16.0228   -8.3769   -1.5218 he      1  lig       0.101864
     36 H_0z         17.0106   -4.6876   -0.0139 hf      1  lig       0.053673
     37 H_10         16.2119   -3.5881   -3.2166 hg      1  lig       0.140097
     38 H_11         17.0459   -1.8830   -4.7859 hh      1  lig       0.176349
     39 H_12         16.7356    0.5091   -4.3263 hi      1  lig       0.142862
     40 H_13         15.3303    2.2450   -4.1961 hj      1  lig       0.144076
     41 H_14         14.7905    4.6180   -3.7185 hk      1  lig       0.173922
     42 H_15         14.7494    5.4510   -1.3903 hl      1  lig       0.144034
     43 H_16         15.8201    1.5472    0.0303 hm      1  lig       0.089861
     44 H_17         14.8910   -0.4239   -0.5697 hq      1  lig       0.122710
     45 H_18         13.6384   -2.0384    3.3180 hr      1  lig       0.429427
@<TRIPOS>BOND
     1     1     2    1
     2     1    28    1
     3     1    29    1
     4     1    30    1
     5     2     3    1
     6     2    26    1
     7     3     4    1
     8     3     5    2
     9     4    31    1
    10     4    45    1
    11     5     6    1
    12     5    32    1
    13     6     7    1
    14     6    13    1
    15     6    26    1
    16     7     8    2
    17     7    12    1
    18     8     9    1
    19     8    33    1
    20     9    10    2
    21     9    34    1
    22    10    11    1
    23    10    35    1
    24    11    12    2
    25    12    36    1
    26    13    14    2
    27    13    25    1
    28    14    15    1
    29    14    37    1
    30    15    16    2
    31    15    38    1
    32    16    17    1
    33    16    39    1
    34    17    18    1
    35    17    25    2
    36    18    19    2
    37    18    24    1
    38    19    20    1
    39    19    40    1
    40    20    21    2
    41    20    41    1
    42    21    22    1
    43    21    42    1
    44    22    23    1
    45    22    24    2
    46    24    43    1
    47    25    44    1
    48    26    27    2
