@<TRIPOS>MOLECULE
lig
  53   56 0 0 0
SMALL
NO_CHARGES


@<TRIPOS>ATOM
      1 C_00         15.3108    5.3150    2.5947 c4      1  lig      -0.174914
      2 C_01         14.9695    5.0166    1.1353 c5      1  lig       0.177881
      3 O_02         15.4867    3.7530    0.7556 o0      1  lig      -0.330610
      4 C_03         15.3578    3.3823   -0.5664 c6      1  lig       0.168941
      5 C_04         14.9827    4.2577   -1.6137 c7      1  lig      -0.108385
      6 C_05         14.9085    3.7845   -2.9347 c8      1  lig      -0.221864
      7 C_06         15.1871    2.4352   -3.2242 c9      1  lig      -0.144847
      8 C_07         15.5189    1.5300   -2.1923 cb      1  lig      -0.013173
      9 C_08         15.7100    0.0902   -2.4691 ci      1  lig      -0.014039
     10 C_09         16.2931   -0.3588   -3.6707 cj      1  lig      -0.046431
     11 C_0a         16.4451   -1.7318   -3.9338 ck      1  lig      -0.230298
     12 C_0b         15.9768   -2.6888   -3.0146 cm      1  lig      -0.115663
     13 C_0c         15.3665   -2.2720   -1.8078 cn      1  lig       0.038014
     14 C_0d         14.7938   -3.2738   -0.7900 co      1  lig      -0.040751
     15 C_0e         15.1445   -4.7550   -1.0654 cq      1  lig      -0.033249
     16 C_0f         14.3023   -5.6423   -1.7785 cr      1  lig      -0.113453
     17 C_0g         14.6606   -6.9934   -1.9603 cs      1  lig      -0.155701
     18 C_0h         15.8808   -7.4748   -1.4583 ct      1  lig      -0.082701
     19 C_0i         16.7449   -6.6035   -0.7847 cw      1  lig      -0.155701
     20 C_0j         16.3663   -5.2668   -0.5791 cA      1  lig      -0.113453
     21 N_0k         15.2242   -2.9268    0.5660 n0      1  lig      -0.259938
     22 C_0l         14.2063   -2.6297    1.3714 cB      1  lig       0.366717
     23 N_0m         14.3866   -2.3466    2.6644 ng      1  lig      -0.747017
     24 N_0n         13.0337   -2.6641    0.7225 nr      1  lig       0.017324
     25 C_0o         11.7158   -2.3156    1.2686 cC      1  lig      -0.079616
     26 C_0p         13.2730   -3.0392   -0.6331 cD      1  lig       0.406500
     27 O_0q         12.3895   -3.1129   -1.4956 o1      1  lig      -0.403135
     28 C_0r         15.2700   -0.8819   -1.5451 cE      1  lig      -0.083861
     29 C_0s         15.6147    2.0341   -0.8762 cF      1  lig      -0.112298
     30 H_0t         14.9231    6.2866    2.8965 h0      1  lig       0.057748
     31 H_0u         14.8805    4.5681    3.2559 h6      1  lig       0.057748
     32 H_0v         16.3871    5.3163    2.7612 h7      1  lig       0.057748
     33 H_0w         13.8916    5.0226    0.9896 h8      1  lig       0.048586
     34 H_0x         15.3901    5.8038    0.5183 h9      1  lig       0.048586
     35 H_0y         14.7479    5.2966   -1.4414 hb      1  lig       0.104564
     36 H_0z         14.6159    4.4614   -3.7233 hd      1  lig       0.186272
     37 H_10         15.0996    2.0870   -4.2435 he      1  lig       0.134884
     38 H_11         16.6339    0.3564   -4.4035 hf      1  lig       0.143733
     39 H_12         16.9147   -2.0429   -4.8560 hg      1  lig       0.178580
     40 H_13         16.0919   -3.7359   -3.2602 hh      1  lig       0.178565
     41 H_14         13.3612   -5.3121   -2.1813 hi      1  lig       0.142384
     42 H_15         13.9960   -7.6656   -2.4822 hj      1  lig       0.161125
     43 H_16         16.1584   -8.5082   -1.5702 hk      1  lig       0.151848
     44 H_17         17.6914   -6.9583   -0.4009 hl      1  lig       0.161125
     45 H_18         17.0280   -4.6320   -0.0186 hm      1  lig       0.142384
     46 H_19         16.2050   -2.9147    0.8451 hq      1  lig       0.346012
     47 H_1a         13.6481   -2.0490    3.2996 hr      1  lig       0.424103
     48 H_1b         10.9192   -2.8646    0.7659 ht      1  lig       0.094270
     49 H_1c         11.6611   -2.5397    2.3334 hu      1  lig       0.094270
     50 H_1d         11.5357   -1.2504    1.1266 hv      1  lig       0.094270
     51 H_1e         14.8040   -0.5415   -0.6317 hy      1  lig       0.080570
     52 H_1f         15.8747    1.3712   -0.0684 hz      1  lig       0.092243
     53 H_1g         15.3329   -2.3473    3.0483 hA      1  lig       0.424103
@<TRIPOS>BOND
     1     1     2    1
     2     1    30    1
     3     1    31    1
     4     1    32    1
     5     2     3    1
     6     2    33    1
     7     2    34    1
     8     3     4    1
     9     4     5    2
    10     4    29    1
    11     5     6    1
    12     5    35    1
    13     6     7    2
    14     6    36    1
    15     7     8    1
    16     7    37    1
    17     8     9    1
    18     8    29    2
    19     9    10    2
    20     9    28    1
    21    10    11    1
    22    10    38    1
    23    11    12    2
    24    11    39    1
    25    12    13    1
    26    12    40    1
    27    13    14    1
    28    13    28    2
    29    14    15    1
    30    14    21    1
    31    14    26    1
    32    15    16    2
    33    15    20    1
    34    16    17    1
    35    16    41    1
    36    17    18    2
    37    17    42    1
    38    18    19    1
    39    18    43    1
    40    19    20    2
    41    19    44    1
    42    20    45    1
    43    21    22    2
    44    21    46    1
    45    22    23    1
    46    22    24    1
    47    23    47    1
    48    23    53    1
    49    24    25    1
    50    24    26    1
    51    25    48    1
    52    25    49    1
    53    25    50    1
    54    26    27    2
    55    28    51    1
    56    29    52    1
