@<TRIPOS>MOLECULE
lig
  45   48 0 0 0
SMALL
NO_CHARGES


@<TRIPOS>ATOM
      1 C_00         11.6961   -2.2645    1.2649 c4      1  lig      -0.124539
      2 N_01         13.0215   -2.5154    0.6888 n0      1  lig      -0.017140
      3 C_02         14.1987   -2.5219    1.3336 c5      1  lig       0.252813
      4 N_03         14.3751   -2.3542    2.6485 ng      1  lig      -0.686621
      5 N_04         15.2238   -2.7253    0.5042 nr      1  lig      -0.166363
      6 C_05         14.7664   -3.0195   -0.8502 c6      1  lig      -0.024281
      7 C_06         15.3113   -1.9904   -1.8759 c7      1  lig      -0.039753
      8 C_07         15.6769   -2.3426   -3.1986 c8      1  lig      -0.096001
      9 C_08         16.1753   -1.3675   -4.0760 c9      1  lig      -0.191968
     10 C_09         16.1926   -0.0120   -3.7018 cb      1  lig      -0.076585
     11 C_0a         15.7284    0.3995   -2.4340 ci      1  lig      -0.021449
     12 C_0b         15.5348    1.8413   -2.1135 cj      1  lig       0.015115
     13 C_0c         15.2021    2.7617   -3.1388 ck      1  lig      -0.112958
     14 C_0d         14.8789    4.1032   -2.8499 cm      1  lig      -0.201885
     15 C_0e         14.8908    4.5603   -1.5223 cn      1  lig      -0.033259
     16 C_0f         15.2551    3.6784   -0.4913 co      1  lig      -0.061292
     17 Cl0g         15.2846    4.2505    1.1365 a0      1  lig      -0.094207
     18 C_0h         15.5764    2.3370   -0.7867 cq      1  lig      -0.021667
     19 C_0i         15.3578   -0.6128   -1.5167 cr      1  lig      -0.082869
     20 C_0j         15.0379   -4.5318   -1.0582 cs      1  lig       0.327620
     21 C_0k         16.1911   -4.9954   -1.7182 ct      1  lig      -0.219130
     22 C_0l         16.4400   -6.3687   -1.8207 cw      1  lig      -0.065485
     23 C_0m         15.5365   -7.2607   -1.2303 cA      1  lig      -0.158173
     24 C_0n         14.4411   -6.7307   -0.5352 cB      1  lig       0.148308
     25 N_0o         14.2062   -5.4075   -0.4355 nw      1  lig      -0.488846
     26 C_0p         13.2558   -2.7592   -0.6949 cC      1  lig       0.490973
     27 O_0q         12.3797   -2.7353   -1.5715 o0      1  lig      -0.416755
     28 H_0r         11.6759   -2.5192    2.3233 h0      1  lig       0.110810
     29 H_0s         11.4474   -1.2118    1.1456 h6      1  lig       0.110810
     30 H_0t         10.9325   -2.8547    0.7588 h7      1  lig       0.110810
     31 H_0u         15.3191   -2.3803    3.0344 h8      1  lig       0.417093
     32 H_0v         16.1999   -2.8167    0.7852 h9      1  lig       0.325932
     33 H_0w         15.6011   -3.3569   -3.5737 hb      1  lig       0.144602
     34 H_0x         16.5117   -1.6644   -5.0572 hd      1  lig       0.172225
     35 H_0y         16.5310    0.7127   -4.4277 he      1  lig       0.144455
     36 H_0z         15.1296    2.4285   -4.1639 hf      1  lig       0.138807
     37 H_10         14.5891    4.7792   -3.6409 hg      1  lig       0.172133
     38 H_11         14.6215    5.5821   -1.2918 hh      1  lig       0.146154
     39 H_12         15.8355    1.6817    0.0279 hi      1  lig       0.101951
     40 H_13         15.0131   -0.3137   -0.5390 hj      1  lig       0.055311
     41 H_14         16.8852   -4.2982   -2.1487 hk      1  lig       0.155316
     42 H_15         17.3214   -6.7175   -2.3297 hl      1  lig       0.172936
     43 H_16         15.6892   -8.3285   -1.2778 hm      1  lig       0.148902
     44 H_17         13.7478   -7.3825   -0.0239 hq      1  lig       0.121057
     45 H_18         13.6328   -2.0835    3.2913 hr      1  lig       0.417093
@<TRIPOS>BOND
     1     1     2    1
     2     1    28    1
     3     1    29    1
     4     1    30    1
     5     2     3    1
     6     2    26    1
     7     3     4    1
     8     3     5    2
     9     4    31    1
    10     4    45    1
    11     5     6    1
    12     5    32    1
    13     6     7    1
    14     6    20    1
    15     6    26    1
    16     7     8    2
    17     7    19    1
    18     8     9    1
    19     8    33    1
    20     9    10    2
    21     9    34    1
    22    10    11    1
    23    10    35    1
    24    11    12    1
    25    11    19    2
    26    12    13    2
    27    12    18    1
    28    13    14    1
    29    13    36    1
    30    14    15    2
    31    14    37    1
    32    15    16    1
    33    15    38    1
    34    16    17    1
    35    16    18    2
    36    18    39    1
    37    19    40    1
    38    20    21    2
    39    20    25    1
    40    21    22    1
    41    21    41    1
    42    22    23    2
    43    22    42    1
    44    23    24    1
    45    23    43    1
    46    24    25    2
    47    24    44    1
    48    26    27    2
