@<TRIPOS>MOLECULE
lig
  45   48 0 0 0
SMALL
NO_CHARGES


@<TRIPOS>ATOM
      1 C_00         11.7149   -2.1704    1.1859 c4      1  lig      -0.078545
      2 N_01         13.0472   -2.4713    0.6536 n0      1  lig       0.002265
      3 C_02         14.2073   -2.4898    1.3303 c5      1  lig       0.388876
      4 N_03         14.3600   -2.2952    2.6436 ng      1  lig      -0.762573
      5 N_04         15.2417   -2.7547    0.5321 nr      1  lig      -0.232751
      6 C_05         14.8171   -3.0611   -0.8292 c6      1  lig      -0.084303
      7 C_06         15.0768   -4.5789   -1.0201 c7      1  lig      -0.043673
      8 C_07         14.2713   -5.5612   -0.3782 c8      1  lig      -0.104845
      9 C_08         14.5686   -6.9356   -0.4681 c9      1  lig      -0.150704
     10 C_09         15.6910   -7.3652   -1.1928 cb      1  lig      -0.085916
     11 C_0a         16.5199   -6.4110   -1.8044 ci      1  lig      -0.150704
     12 C_0b         16.2187   -5.0421   -1.7029 cj      1  lig      -0.104845
     13 C_0c         15.3780   -2.0329   -1.8475 ck      1  lig       0.092167
     14 C_0d         15.7357   -2.3799   -3.1722 cm      1  lig      -0.134625
     15 C_0e         16.2339   -1.4073   -4.0511 cn      1  lig      -0.202343
     16 C_0f         16.2513   -0.0546   -3.6768 co      1  lig      -0.042004
     17 C_0g         15.7990    0.3581   -2.4048 cq      1  lig      -0.107062
     18 C_0h         15.6221    1.8005   -2.0870 cr      1  lig      -0.040975
     19 C_0i         15.3734    2.7533   -3.1057 cs      1  lig       0.242016
     20 N_0j         15.0850    4.0531   -2.8896 nw      1  lig      -0.557365
     21 C_0k         15.0307    4.4848   -1.6166 ct      1  lig       0.349076
     22 C_0l         15.2978    3.6534   -0.5188 cw      1  lig      -0.181355
     23 Cl0m         15.2309    4.2780    1.0891 a0      1  lig      -0.083167
     24 C_0n         15.6053    2.3015   -0.7646 cA      1  lig       0.042059
     25 C_0o         15.4326   -0.6575   -1.4875 cB      1  lig      -0.086125
     26 C_0p         13.3072   -2.7857   -0.7105 cC      1  lig       0.423244
     27 O_0q         12.4451   -2.8374   -1.5962 o0      1  lig      -0.402513
     28 H_0r         11.5254   -1.1038    1.0825 h0      1  lig       0.095790
     29 H_0s         10.9386   -2.7031    0.6371 h6      1  lig       0.095790
     30 H_0t         11.6394   -2.4492    2.2396 h7      1  lig       0.095790
     31 H_0u         15.2990   -2.3284    3.0413 h8      1  lig       0.429112
     32 H_0v         16.2148   -2.8176    0.8299 h9      1  lig       0.331779
     33 H_0w         13.4192   -5.2900    0.2243 hb      1  lig       0.137691
     34 H_0x         13.9459   -7.6597    0.0349 hd      1  lig       0.160915
     35 H_0y         15.9302   -8.4166   -1.2496 he      1  lig       0.154386
     36 H_0z         17.4132   -6.7098   -2.3269 hf      1  lig       0.160915
     37 H_10         16.9005   -4.3392   -2.1394 hg      1  lig       0.137691
     38 H_11         15.6492   -3.3892   -3.5499 hh      1  lig       0.183510
     39 H_12         16.5692   -1.6944   -5.0379 hi      1  lig       0.177189
     40 H_13         16.5827    0.6667   -4.4089 hj      1  lig       0.141079
     41 H_14         15.3362    2.4537   -4.1431 hk      1  lig       0.093673
     42 H_15         14.7753    5.5228   -1.4712 hl      1  lig       0.088113
     43 H_16         15.8106    1.6512    0.0680 hm      1  lig       0.117047
     44 H_17         15.0959   -0.3618   -0.5079 hq      1  lig       0.067108
     45 H_18         13.6147   -2.0122    3.2793 hr      1  lig       0.429112
@<TRIPOS>BOND
     1     1     2    1
     2     1    28    1
     3     1    29    1
     4     1    30    1
     5     2     3    1
     6     2    26    1
     7     3     4    1
     8     3     5    2
     9     4    31    1
    10     4    45    1
    11     5     6    1
    12     5    32    1
    13     6     7    1
    14     6    13    1
    15     6    26    1
    16     7     8    2
    17     7    12    1
    18     8     9    1
    19     8    33    1
    20     9    10    2
    21     9    34    1
    22    10    11    1
    23    10    35    1
    24    11    12    2
    25    11    36    1
    26    12    37    1
    27    13    14    2
    28    13    25    1
    29    14    15    1
    30    14    38    1
    31    15    16    2
    32    15    39    1
    33    16    17    1
    34    16    40    1
    35    17    18    1
    36    17    25    2
    37    18    19    2
    38    18    24    1
    39    19    20    1
    40    19    41    1
    41    20    21    2
    42    21    22    1
    43    21    42    1
    44    22    23    1
    45    22    24    2
    46    24    43    1
    47    25    44    1
    48    26    27    2
