@<TRIPOS>MOLECULE
lig
  43   46 0 0 0
SMALL
NO_CHARGES


@<TRIPOS>ATOM
      1 C_00         11.7860   -2.3271    1.0538 c4      1  lig      -0.048602
      2 N_01         13.1444   -2.5995    0.5661 n0      1  lig       0.102682
      3 C_02         14.2729   -2.5333    1.2874 c5      1  lig       0.346242
      4 N_03         14.3652   -2.2938    2.6004 ng      1  lig      -0.798662
      5 N_04         15.3469   -2.7616    0.5345 nr      1  lig      -0.296032
      6 C_05         15.0192   -3.0683   -0.8497 c6      1  lig      -0.015520
      7 C_06         15.5634   -1.9948   -1.8100 c7      1  lig       0.022967
      8 C_07         16.1894   -2.3496   -3.0284 c8      1  lig      -0.033799
      9 C_08         16.6159   -1.3547   -3.9204 c9      1  lig      -0.236906
     10 C_09         16.4013    0.0015   -3.6209 cb      1  lig      -0.061622
     11 C_0a         15.8080    0.4004   -2.4044 ci      1  lig      -0.025157
     12 C_0b         15.5587    1.8326   -2.1090 cj      1  lig      -0.003062
     13 C_0c         15.2649    2.7464   -3.1489 ck      1  lig      -0.119314
     14 C_0d         14.9444    4.0910   -2.8732 cm      1  lig      -0.188667
     15 C_0e         14.9243    4.5522   -1.5465 cn      1  lig      -0.033806
     16 C_0f         15.2486    3.6732   -0.5009 co      1  lig      -0.073651
     17 Cl0g         15.2426    4.2511    1.1245 a0      1  lig      -0.090133
     18 C_0h         15.5647    2.3288   -0.7836 cq      1  lig      -0.004302
     19 C_0i         15.4125   -0.6168   -1.5039 cr      1  lig      -0.096071
     20 C_0j         15.5900   -4.4689   -1.1332 cs      1  lig      -0.153796
     21 C_0k         15.3463   -5.2332   -2.4204 ct      1  lig      -0.234043
     22 C_0l         16.7355   -4.7539   -2.0801 cw      1  lig      -0.234043
     23 C_0m         13.4812   -2.9579   -0.7768 cA      1  lig       0.309442
     24 O_0n         12.6571   -3.1079   -1.6844 o0      1  lig      -0.383041
     25 H_0o         11.0292   -2.7766    0.4106 h0      1  lig       0.083770
     26 H_0p         11.6524   -2.7177    2.0625 h6      1  lig       0.083770
     27 H_0q         11.6181   -1.2506    1.0770 h7      1  lig       0.083770
     28 H_0r         13.5838   -2.0392    3.2009 h8      1  lig       0.443173
     29 H_0s         16.3098   -2.7539    0.8773 h9      1  lig       0.368108
     30 H_0t         16.3451   -3.3789   -3.3174 hb      1  lig       0.141569
     31 H_0u         17.0896   -1.6334   -4.8519 hd      1  lig       0.179573
     32 H_0v         16.6981    0.7398   -4.3492 he      1  lig       0.150796
     33 H_0w         15.2371    2.4076   -4.1742 hf      1  lig       0.136297
     34 H_0x         14.6865    4.7672   -3.6749 hg      1  lig       0.169755
     35 H_0y         14.6583    5.5769   -1.3284 hh      1  lig       0.148516
     36 H_0z         15.8089    1.6730    0.0351 hi      1  lig       0.100234
     37 H_10         14.9319   -0.3282   -0.5818 hj      1  lig       0.074612
     38 H_11         15.5716   -5.0931   -0.2434 hk      1  lig       0.168176
     39 H_12         15.1570   -6.3019   -2.3389 hl      1  lig       0.143401
     40 H_13         14.8362   -4.7371   -3.2436 hm      1  lig       0.143401
     41 H_14         17.1286   -3.9418   -2.6801 hq      1  lig       0.143401
     42 H_15         17.4697   -5.4962   -1.7713 hr      1  lig       0.143401
     43 H_16         15.2860   -2.2903    3.0398 ht      1  lig       0.443173
@<TRIPOS>BOND
     1     1     2    1
     2     1    25    1
     3     1    26    1
     4     1    27    1
     5     2     3    1
     6     2    23    1
     7     3     4    1
     8     3     5    2
     9     4    28    1
    10     4    43    1
    11     5     6    1
    12     5    29    1
    13     6     7    1
    14     6    20    1
    15     6    23    1
    16     7     8    2
    17     7    19    1
    18     8     9    1
    19     8    30    1
    20     9    10    2
    21     9    31    1
    22    10    11    1
    23    10    32    1
    24    11    12    1
    25    11    19    2
    26    12    13    2
    27    12    18    1
    28    13    14    1
    29    13    33    1
    30    14    15    2
    31    14    34    1
    32    15    16    1
    33    15    35    1
    34    16    18    2
    35    16    17    1
    36    18    36    1
    37    19    37    1
    38    20    21    1
    39    20    22    1
    40    20    38    1
    41    21    22    1
    42    21    39    1
    43    21    40    1
    44    22    41    1
    45    22    42    1
    46    23    24    2
