@<TRIPOS>MOLECULE
lig
  48   51 0 0 0
SMALL
NO_CHARGES


@<TRIPOS>ATOM
      1 C_00         15.2085    4.1243    0.7011 c4      1  lig      -0.267439
      2 C_01         15.3093    3.5222   -0.6861 c5      1  lig      -0.015362
      3 C_02         15.1283    4.3252   -1.8220 c6      1  lig       0.200581
      4 N_03         15.2147    3.8466   -3.0718 n0      1  lig      -0.545417
      5 C_04         15.4530    2.5306   -3.2366 c7      1  lig       0.240482
      6 C_05         15.6153    1.6087   -2.1788 c8      1  lig      -0.068645
      7 C_06         15.7868    0.1570   -2.4348 c9      1  lig      -0.069747
      8 C_07         16.3707   -0.3092   -3.6317 cb      1  lig      -0.038682
      9 C_08         16.5066   -1.6828   -3.8950 ci      1  lig      -0.220153
     10 C_09         16.0172   -2.6317   -2.9816 cj      1  lig      -0.122645
     11 C_0a         15.4025   -2.2056   -1.7814 ck      1  lig       0.078811
     12 C_0b         14.8026   -3.2086   -0.7801 cm      1  lig      -0.050989
     13 C_0c         15.1320   -4.6947   -1.0609 cn      1  lig      -0.039841
     14 C_0d         14.2712   -5.5707   -1.7659 co      1  lig      -0.114721
     15 C_0e         14.6073   -6.9273   -1.9484 cq      1  lig      -0.149785
     16 C_0f         15.8240   -7.4275   -1.4572 cr      1  lig      -0.083210
     17 C_0g         16.7057   -6.5689   -0.7893 cs      1  lig      -0.149785
     18 C_0h         16.3487   -5.2261   -0.5817 ct      1  lig      -0.114721
     19 N_0i         15.2233   -2.8833    0.5825 ng      1  lig      -0.252196
     20 C_0j         14.1991   -2.6017    1.3845 cw      1  lig       0.371281
     21 N_0k         14.3717   -2.3498    2.6843 nr      1  lig      -0.761222
     22 N_0l         13.0321   -2.6160    0.7246 nw      1  lig       0.027112
     23 C_0m         11.7078   -2.2824    1.2642 cA      1  lig      -0.068570
     24 C_0n         13.2839   -2.9557   -0.6374 cB      1  lig       0.388483
     25 O_0o         12.4104   -2.9973   -1.5122 o0      1  lig      -0.395610
     26 C_0p         15.3260   -0.8127   -1.5146 cC      1  lig      -0.109778
     27 C_0q         15.5648    2.1498   -0.8756 cD      1  lig      -0.080595
     28 H_0r         16.0316    3.7903    1.3335 h0      1  lig       0.092894
     29 H_0s         15.2299    5.2141    0.6616 h6      1  lig       0.092894
     30 H_0t         14.2698    3.8305    1.1666 h7      1  lig       0.092894
     31 H_0u         14.9149    5.3799   -1.7273 h8      1  lig       0.110423
     32 H_0v         15.4710    2.1996   -4.2636 h9      1  lig       0.084674
     33 H_0w         16.7223    0.3878   -4.3751 hb      1  lig       0.141229
     34 H_0x         16.9757   -2.0017   -4.8152 hd      1  lig       0.179113
     35 H_0y         16.1174   -3.6800   -3.2289 he      1  lig       0.179127
     36 H_0z         13.3311   -5.2285   -2.1606 hf      1  lig       0.142473
     37 H_10         13.9284   -7.5908   -2.4623 hg      1  lig       0.160058
     38 H_11         16.0818   -8.4658   -1.5745 hh      1  lig       0.152136
     39 H_12         17.6490   -6.9379   -0.4113 hi      1  lig       0.160058
     40 H_13         17.0227   -4.6017   -0.0248 hj      1  lig       0.142473
     41 H_14         16.2018   -2.8881    0.8703 hk      1  lig       0.339572
     42 H_15         13.6303   -2.0608    3.3203 hl      1  lig       0.429028
     43 H_16         10.9229   -2.8522    0.7663 hm      1  lig       0.091776
     44 H_17         11.6536   -2.4945    2.3313 hq      1  lig       0.091776
     45 H_18         11.5087   -1.2228    1.1074 hr      1  lig       0.091776
     46 H_19         14.8550   -0.4759   -0.6034 ht      1  lig       0.080537
     47 H_1a         15.7154    1.5136   -0.0204 hu      1  lig       0.128424
     48 H_1b         15.3155   -2.3598    3.0735 hv      1  lig       0.429028
@<TRIPOS>BOND
     1     1     2    1
     2     1    28    1
     3     1    29    1
     4     1    30    1
     5     2     3    2
     6     2    27    1
     7     3     4    1
     8     3    31    1
     9     4     5    2
    10     5     6    1
    11     5    32    1
    12     6     7    1
    13     6    27    2
    14     7     8    2
    15     7    26    1
    16     8     9    1
    17     8    33    1
    18     9    10    2
    19     9    34    1
    20    10    11    1
    21    10    35    1
    22    11    12    1
    23    11    26    2
    24    12    13    1
    25    12    19    1
    26    12    24    1
    27    13    14    2
    28    13    18    1
    29    14    15    1
    30    14    36    1
    31    15    16    2
    32    15    37    1
    33    16    17    1
    34    16    38    1
    35    17    18    2
    36    17    39    1
    37    18    40    1
    38    19    20    2
    39    19    41    1
    40    20    21    1
    41    20    22    1
    42    21    42    1
    43    21    48    1
    44    22    23    1
    45    22    24    1
    46    23    43    1
    47    23    44    1
    48    23    45    1
    49    24    25    2
    50    26    46    1
    51    27    47    1
