@<TRIPOS>MOLECULE
lig
  46   49 0 0 0
SMALL
NO_CHARGES


@<TRIPOS>ATOM
      1 C_00         11.7684   -1.9959    1.1324 c4      1  lig      -0.023889
      2 N_01         13.0773   -2.4188    0.6254 n0      1  lig       0.094354
      3 C_02         14.2291   -2.5040    1.3137 c5      1  lig       0.301127
      4 N_03         14.3929   -2.2698    2.6191 ng      1  lig      -0.829785
      5 N_04         15.2451   -2.8865    0.5393 nr      1  lig      -0.221504
      6 C_05         14.8082   -3.1964   -0.8186 c6      1  lig      -0.005324
      7 C_06         15.4852   -2.1794   -1.7990 c7      1  lig      -0.026918
      8 C_07         16.1731   -2.5185   -2.9932 c8      1  lig      -0.022175
      9 C_08         16.6532   -1.5251   -3.8618 c9      1  lig      -0.219099
     10 C_09         16.4491   -0.1688   -3.5713 cb      1  lig      -0.086138
     11 C_0a         15.8247    0.2326   -2.3765 ci      1  lig      -0.006992
     12 C_0b         15.5945    1.6726   -2.0932 cj      1  lig       0.007356
     13 C_0c         15.3339    2.5855   -3.1442 ck      1  lig      -0.129328
     14 C_0d         15.0299    3.9370   -2.8820 cm      1  lig      -0.188507
     15 C_0e         15.0030    4.4103   -1.5608 cn      1  lig      -0.034839
     16 C_0f         15.3015    3.5355   -0.5053 co      1  lig      -0.069422
     17 Cl0g         15.2995    4.1388    1.1106 a0      1  lig      -0.091891
     18 C_0h         15.5922    2.1813   -0.7728 cq      1  lig      -0.011463
     19 C_0i         15.3791   -0.7861   -1.4997 cr      1  lig      -0.087787
     20 C_0j         14.9144   -4.7626   -0.9856 cs      1  lig       0.072212
     21 C_0k         14.1547   -5.5339    0.1086 ct      1  lig      -0.271960
     22 C_0l         14.8874   -5.4504   -2.3330 cw      1  lig      -0.258033
     23 C_0m         16.1530   -5.4449   -1.5196 cA      1  lig      -0.258033
     24 C_0n         13.3202   -2.8066   -0.7246 cB      1  lig       0.284822
     25 O_0o         12.4613   -2.8390   -1.6128 o0      1  lig      -0.368880
     26 H_0p         11.6694   -2.2266    2.1924 h0      1  lig       0.080036
     27 H_0q         11.6575   -0.9215    0.9898 h6      1  lig       0.080036
     28 H_0r         10.9559   -2.4934    0.6024 h7      1  lig       0.080036
     29 H_0s         13.6578   -1.9498    3.2470 h8      1  lig       0.454649
     30 H_0t         16.2187   -2.9494    0.8388 h9      1  lig       0.359536
     31 H_0u         16.3613   -3.5214   -3.3226 hb      1  lig       0.131882
     32 H_0v         17.1603   -1.8031   -4.7762 hd      1  lig       0.175406
     33 H_0w         16.7780    0.5693   -4.2846 he      1  lig       0.154517
     34 H_0x         15.3170    2.2428   -4.1689 hf      1  lig       0.139886
     35 H_0y         14.7867    4.6128   -3.6877 hg      1  lig       0.170526
     36 H_0z         14.7514    5.4411   -1.3547 hh      1  lig       0.147946
     37 H_10         15.8182    1.5269    0.0513 hi      1  lig       0.105752
     38 H_11         14.8801   -0.4710   -0.5956 hj      1  lig       0.047985
     39 H_12         14.4413   -5.2246    1.1136 hk      1  lig       0.099550
     40 H_13         13.0753   -5.4266   -0.0014 hl      1  lig       0.099550
     41 H_14         14.3669   -6.6018    0.0392 hm      1  lig       0.099550
     42 H_15         14.3561   -6.3971   -2.4158 hq      1  lig       0.142651
     43 H_16         14.8225   -4.8302   -3.2131 hr      1  lig       0.142651
     44 H_17         16.9645   -4.8200   -1.8430 ht      1  lig       0.142651
     45 H_18         16.4620   -6.3805   -1.0573 hu      1  lig       0.142651
     46 H_19         15.3286   -2.3341    3.0225 hv      1  lig       0.454649
@<TRIPOS>BOND
     1     1     2    1
     2     1    26    1
     3     1    27    1
     4     1    28    1
     5     2     3    1
     6     2    24    1
     7     3     4    1
     8     3     5    2
     9     4    29    1
    10     4    46    1
    11     5     6    1
    12     5    30    1
    13     6     7    1
    14     6    20    1
    15     6    24    1
    16     7     8    2
    17     7    19    1
    18     8     9    1
    19     8    31    1
    20     9    10    2
    21     9    32    1
    22    10    11    1
    23    10    33    1
    24    11    12    1
    25    11    19    2
    26    12    13    2
    27    12    18    1
    28    13    14    1
    29    13    34    1
    30    14    15    2
    31    14    35    1
    32    15    16    1
    33    15    36    1
    34    16    17    1
    35    16    18    2
    36    18    37    1
    37    19    38    1
    38    20    21    1
    39    20    22    1
    40    20    23    1
    41    21    39    1
    42    21    40    1
    43    21    41    1
    44    22    23    1
    45    22    42    1
    46    22    43    1
    47    23    44    1
    48    23    45    1
    49    24    25    2
