@<TRIPOS>MOLECULE
lig
  46   49 0 0 0
SMALL
NO_CHARGES


@<TRIPOS>ATOM
      1 C_00         11.7155   -2.2816    1.2489 c4      1  lig      -0.079303
      2 N_01         13.0381   -2.6195    0.7079 n0      1  lig      -0.006194
      3 C_02         14.2057   -2.6014    1.3666 c5      1  lig       0.416564
      4 N_03         14.3786   -2.3437    2.6660 ng      1  lig      -0.767570
      5 N_04         15.2286   -2.8858    0.5635 nr      1  lig      -0.275278
      6 C_05         14.8076   -3.2129   -0.8000 c6      1  lig      -0.088531
      7 C_06         15.1467   -4.6965   -1.0818 c7      1  lig      -0.045794
      8 C_07         16.3603   -5.2248   -0.5917 c8      1  lig      -0.089915
      9 C_08         16.7228   -6.5667   -0.7953 c9      1  lig      -0.154879
     10 C_09         15.8495   -7.4280   -1.4705 cb      1  lig      -0.088456
     11 C_0a         14.6354   -6.9314   -1.9715 ci      1  lig      -0.154879
     12 C_0b         14.2942   -5.5755   -1.7923 cj      1  lig      -0.089915
     13 C_0c         15.3967   -2.2027   -1.8015 ck      1  lig       0.073556
     14 C_0d         15.9974   -2.6085   -3.0157 cm      1  lig      -0.108803
     15 C_0e         16.4805   -1.6424   -3.9173 cn      1  lig      -0.243218
     16 C_0f         16.3578   -0.2708   -3.6263 co      1  lig      -0.037246
     17 C_0g         15.7919    0.1718   -2.4127 cq      1  lig      -0.028134
     18 C_0h         15.6399    1.6146   -2.0981 cr      1  lig       0.015769
     19 C_0i         15.4538    2.5838   -3.1120 cs      1  lig      -0.096266
     20 C_0j         15.2099    3.9358   -2.7897 ct      1  lig      -0.185223
     21 C_0k         15.1604    4.3485   -1.4470 cw      1  lig      -0.085648
     22 C_0l         15.3892    3.4118   -0.4273 cA      1  lig      -0.185223
     23 C_0m         15.6325    2.0660   -0.7583 cB      1  lig      -0.096266
     24 C_0n         15.3278   -0.8153   -1.5134 cC      1  lig      -0.115099
     25 C_0o         13.2876   -2.9675   -0.6530 cD      1  lig       0.448232
     26 O_0p         12.4113   -3.0211   -1.5243 o0      1  lig      -0.411046
     27 H_0q         11.5248   -1.2189    1.1026 h0      1  lig       0.094682
     28 H_0r         10.9265   -2.8405    0.7450 h6      1  lig       0.094682
     29 H_0s         11.6590   -2.5032    2.3142 h7      1  lig       0.094682
     30 H_0t         15.3225   -2.3533    3.0553 h8      1  lig       0.426997
     31 H_0u         16.2073   -2.8876    0.8505 h9      1  lig       0.346670
     32 H_0v         17.0256   -4.6002   -0.0248 hb      1  lig       0.128619
     33 H_0w         17.6623   -6.9337   -0.4062 hd      1  lig       0.159759
     34 H_0x         16.1115   -8.4656   -1.5844 he      1  lig       0.153417
     35 H_0y         13.9632   -7.5967   -2.4917 hf      1  lig       0.159759
     36 H_0z         13.3568   -5.2350   -2.1940 hg      1  lig       0.128619
     37 H_10         16.0917   -3.6532   -3.2801 hh      1  lig       0.175253
     38 H_11         16.9372   -1.9475   -4.8486 hi      1  lig       0.181280
     39 H_12         16.7044    0.4465   -4.3531 hj      1  lig       0.144596
     40 H_13         15.4494    2.2872   -4.1504 hk      1  lig       0.117156
     41 H_14         15.0281    4.6607   -3.5680 hl      1  lig       0.155594
     42 H_15         14.9459    5.3789   -1.2001 hm      1  lig       0.142421
     43 H_16         15.3642    3.7204    0.6078 hq      1  lig       0.155594
     44 H_17         15.8121    1.3687    0.0406 hr      1  lig       0.117156
     45 H_18         14.8644   -0.4921   -0.5938 ht      1  lig       0.074832
     46 H_19         13.6372   -2.0531    3.3011 hu      1  lig       0.426997
@<TRIPOS>BOND
     1     1     2    1
     2     1    27    1
     3     1    28    1
     4     1    29    1
     5     2     3    1
     6     2    25    1
     7     3     4    1
     8     3     5    2
     9     4    30    1
    10     4    46    1
    11     5     6    1
    12     5    31    1
    13     6     7    1
    14     6    13    1
    15     6    25    1
    16     7     8    2
    17     7    12    1
    18     8     9    1
    19     8    32    1
    20     9    10    2
    21     9    33    1
    22    10    11    1
    23    10    34    1
    24    11    12    2
    25    11    35    1
    26    12    36    1
    27    13    14    2
    28    13    24    1
    29    14    15    1
    30    14    37    1
    31    15    16    2
    32    15    38    1
    33    16    17    1
    34    16    39    1
    35    17    18    1
    36    17    24    2
    37    18    19    2
    38    18    23    1
    39    19    20    1
    40    19    40    1
    41    20    21    2
    42    20    41    1
    43    21    22    1
    44    21    42    1
    45    22    23    2
    46    22    43    1
    47    23    44    1
    48    24    45    1
    49    25    26    2
