@<TRIPOS>MOLECULE
lig
  45   48 0 0 0
SMALL
NO_CHARGES


@<TRIPOS>ATOM
      1 C_00         15.2932    4.2915    1.0147 c4      1  lig      -0.281448
      2 C_01         15.2616    3.7480   -0.3995 c5      1  lig      -0.021832
      3 C_02         14.9085    4.5739   -1.4751 c6      1  lig       0.221170
      4 N_03         14.8944    4.1495   -2.7538 n0      1  lig      -0.545709
      5 C_04         15.2063    2.8612   -2.9971 c7      1  lig       0.242446
      6 C_05         15.5301    1.9161   -2.0030 c8      1  lig      -0.086840
      7 C_06         15.7496    0.4844   -2.3447 c9      1  lig      -0.054441
      8 C_07         16.2883    0.1102   -3.5962 cb      1  lig      -0.054505
      9 C_08         16.4392   -1.2422   -3.9406 ci      1  lig      -0.218827
     10 C_09         15.9908   -2.2528   -3.0810 cj      1  lig      -0.049032
     11 C_0a         15.4339   -1.9362   -1.8222 ck      1  lig       0.015936
     12 C_0b         14.8689   -2.9894   -0.8318 cm      1  lig      -0.035308
     13 C_0c         15.1312   -4.5068   -0.9958 cn      1  lig      -0.148936
     14 C_0d         14.8281   -5.2744   -2.2582 co      1  lig      -0.216346
     15 C_0e         16.2398   -5.2146   -1.7420 cq      1  lig      -0.216346
     16 N_0f         15.2808   -2.6745    0.5323 ng      1  lig      -0.382724
     17 C_0g         14.2359   -2.5141    1.3440 cr      1  lig       0.455319
     18 N_0h         14.3825   -2.3702    2.6646 nr      1  lig      -0.852399
     19 N_0i         13.0741   -2.5549    0.6745 nw      1  lig       0.051950
     20 C_0j         11.7278   -2.4944    1.2586 cs      1  lig      -0.052174
     21 C_0k         13.3510   -2.7948   -0.7027 ct      1  lig       0.370461
     22 O_0l         12.4937   -2.8958   -1.5869 o0      1  lig      -0.398808
     23 C_0m         15.3607   -0.5585   -1.4665 cw      1  lig      -0.094725
     24 C_0n         15.5842    2.4020   -0.6755 cA      1  lig      -0.072288
     25 H_0o         14.4087    3.9655    1.5522 h0      1  lig       0.095947
     26 H_0p         16.1711    3.9455    1.5624 h6      1  lig       0.095947
     27 H_0q         15.3062    5.3818    1.0335 h7      1  lig       0.095947
     28 H_0r         14.6629    5.6160   -1.3152 h8      1  lig       0.102084
     29 H_0s         15.1107    2.5630   -4.0300 h9      1  lig       0.080271
     30 H_0t         16.5894    0.8517   -4.3192 hb      1  lig       0.148697
     31 H_0u         16.8753   -1.5226   -4.8866 hd      1  lig       0.174404
     32 H_0v         16.0871   -3.2506   -3.4660 he      1  lig       0.146934
     33 H_0w         14.8189   -5.0590   -0.1094 hf      1  lig       0.164110
     34 H_0x         14.2625   -6.1991   -2.1472 hg      1  lig       0.136090
     35 H_0y         14.5937   -4.6809   -3.1257 hh      1  lig       0.136090
     36 H_0z         16.9418   -4.6586   -2.3398 hi      1  lig       0.136090
     37 H_10         16.6559   -6.1052   -1.2662 hj      1  lig       0.136090
     38 H_11         16.2575   -2.7098    0.8299 hk      1  lig       0.386533
     39 H_12         13.6314   -2.1095    3.3027 hl      1  lig       0.454562
     40 H_13         11.0150   -2.0181    0.5837 hm      1  lig       0.085484
     41 H_14         11.3726   -3.5009    1.4847 hq      1  lig       0.085484
     42 H_15         11.7558   -1.9447    2.1954 hr      1  lig       0.085484
     43 H_16         14.9119   -0.3026   -0.5173 ht      1  lig       0.084223
     44 H_17         15.8494    1.7412    0.1319 hu      1  lig       0.140373
     45 H_18         15.3265   -2.3620    3.0533 hv      1  lig       0.454562
@<TRIPOS>BOND
     1     1     2    1
     2     1    25    1
     3     1    26    1
     4     1    27    1
     5     2     3    2
     6     2    24    1
     7     3     4    1
     8     3    28    1
     9     4     5    2
    10     5     6    1
    11     5    29    1
    12     6     7    1
    13     6    24    2
    14     7     8    2
    15     7    23    1
    16     8     9    1
    17     8    30    1
    18     9    10    2
    19     9    31    1
    20    10    11    1
    21    10    32    1
    22    11    12    1
    23    11    23    2
    24    12    13    1
    25    12    16    1
    26    12    21    1
    27    13    14    1
    28    13    15    1
    29    13    33    1
    30    14    15    1
    31    14    34    1
    32    14    35    1
    33    15    36    1
    34    15    37    1
    35    16    17    2
    36    16    38    1
    37    17    18    1
    38    17    19    1
    39    18    39    1
    40    18    45    1
    41    19    20    1
    42    19    21    1
    43    20    40    1
    44    20    41    1
    45    20    42    1
    46    21    22    2
    47    23    43    1
    48    24    44    1
