@<TRIPOS>MOLECULE
lig
  39   41 0 0 0
SMALL
NO_CHARGES


@<TRIPOS>ATOM
      1 C_00         11.8131   -2.0987    1.0830 c4      1  lig      -0.113618
      2 N_01         13.1334   -2.4685    0.5575 n0      1  lig      -0.006448
      3 C_02         14.2851   -2.5312    1.2456 c5      1  lig       0.490511
      4 N_03         14.4325   -2.3246    2.5605 ng      1  lig      -0.842374
      5 N_04         15.3127   -2.8534    0.4546 nr      1  lig      -0.453496
      6 C_05         14.9092   -3.0355   -0.9381 c6      1  lig       0.095295
      7 C_06         15.1892   -4.4889   -1.3783 c7      1  lig      -0.150093
      8 C_07         15.5119   -1.9635   -1.8624 c8      1  lig       0.004549
      9 C_08         16.1763   -2.3128   -3.0620 c9      1  lig      -0.116851
     10 C_09         16.6330   -1.3124   -3.9325 cb      1  lig      -0.201018
     11 C_0a         16.4138    0.0423   -3.6288 ci      1  lig      -0.065698
     12 C_0b         15.7987    0.4335   -2.4212 cj      1  lig      -0.005942
     13 C_0c         15.5499    1.8627   -2.1170 ck      1  lig       0.010940
     14 C_0d         15.2538    2.7805   -3.1519 cm      1  lig      -0.114977
     15 C_0e         14.9338    4.1236   -2.8692 cn      1  lig      -0.202712
     16 C_0f         14.9160    4.5776   -1.5397 co      1  lig      -0.027958
     17 C_0g         15.2415    3.6932   -0.4988 cq      1  lig      -0.048092
     18 Cl0h         15.2369    4.2623    1.1298 a0      1  lig      -0.098719
     19 C_0i         15.5569    2.3502   -0.7887 cr      1  lig      -0.030595
     20 C_0j         15.3759   -0.5881   -1.5399 cs      1  lig      -0.117940
     21 C_0k         13.3951   -2.8048   -0.8053 ct      1  lig       0.429301
     22 O_0l         12.5342   -2.8850   -1.6872 o0      1  lig      -0.414669
     23 H_0m         11.6713   -1.0230    0.9798 h0      1  lig       0.103901
     24 H_0n         11.0133   -2.6016    0.5387 h6      1  lig       0.103901
     25 H_0o         11.7238   -2.3620    2.1367 h7      1  lig       0.103901
     26 H_0p         15.3677   -2.3767    2.9680 h8      1  lig       0.451744
     27 H_0q         16.2865   -2.8882    0.7611 h9      1  lig       0.398610
     28 H_0r         16.2597   -4.6769   -1.4694 hb      1  lig       0.081413
     29 H_0s         14.8010   -5.2068   -0.6550 hd      1  lig       0.081413
     30 H_0t         14.7220   -4.7157   -2.3385 he      1  lig       0.081413
     31 H_0u         16.3361   -3.3388   -3.3593 hf      1  lig       0.154094
     32 H_0v         17.1291   -1.5869   -4.8533 hg      1  lig       0.182143
     33 H_0w         16.7243    0.7863   -4.3449 hh      1  lig       0.144511
     34 H_0x         15.2245    2.4443   -4.1780 hi      1  lig       0.146080
     35 H_0y         14.6756    4.8036   -3.6677 hj      1  lig       0.174842
     36 H_0z         14.6511    5.6013   -1.3159 hk      1  lig       0.146119
     37 H_10         15.8011    1.6882    0.0253 hl      1  lig       0.090821
     38 H_11         14.8782   -0.3031   -0.6255 hm      1  lig       0.083954
     39 H_12         13.6878   -2.0197    3.1842 hq      1  lig       0.451744
@<TRIPOS>BOND
     1     1     2    1
     2     1    23    1
     3     1    24    1
     4     1    25    1
     5     2     3    1
     6     2    21    1
     7     3     4    1
     8     3     5    2
     9     4    26    1
    10     4    39    1
    11     5     6    1
    12     5    27    1
    13     6     7    1
    14     6     8    1
    15     6    21    1
    16     7    28    1
    17     7    29    1
    18     7    30    1
    19     8     9    2
    20     8    20    1
    21     9    10    1
    22     9    31    1
    23    10    11    2
    24    10    32    1
    25    11    12    1
    26    11    33    1
    27    12    13    1
    28    12    20    2
    29    13    14    2
    30    13    19    1
    31    14    15    1
    32    14    34    1
    33    15    16    2
    34    15    35    1
    35    16    17    1
    36    16    36    1
    37    17    18    1
    38    17    19    2
    39    19    37    1
    40    20    38    1
    41    21    22    2
