@<TRIPOS>MOLECULE
lig
  46   49 0 0 0
SMALL
NO_CHARGES


@<TRIPOS>ATOM
      1 C_00         11.6953   -2.1436    1.3064 c4      1  lig      -0.081457
      2 N_01         13.0025   -2.3990    0.6999 n0      1  lig      -0.006761
      3 C_02         14.1917   -2.4863    1.3202 c5      1  lig       0.405871
      4 N_03         14.4011   -2.3559    2.6348 ng      1  lig      -0.768233
      5 N_04         15.1812   -2.7373    0.4600 nr      1  lig      -0.235931
      6 C_05         14.6758   -2.9528   -0.8941 c6      1  lig      -0.092862
      7 C_06         14.8451   -4.4626   -1.1964 c7      1  lig      -0.045093
      8 C_07         16.0866   -4.9310   -1.6683 c8      1  lig      -0.104310
      9 C_08         16.3077   -6.2911   -1.9317 c9      1  lig      -0.148594
     10 C_09         15.3010   -7.2305   -1.6613 cb      1  lig      -0.086427
     11 C_0a         14.0785   -6.8053   -1.1182 ci      1  lig      -0.148594
     12 C_0b         13.8521   -5.4364   -0.8930 cj      1  lig      -0.104310
     13 C_0c         15.2714   -1.9272   -1.8915 ck      1  lig       0.085651
     14 C_0d         15.7220   -2.2895   -3.1819 cm      1  lig      -0.130332
     15 C_0e         16.2633   -1.3220   -4.0414 cn      1  lig      -0.202177
     16 C_0f         16.2448    0.0372   -3.6846 co      1  lig      -0.045628
     17 C_0g         15.7216    0.4597   -2.4444 cq      1  lig      -0.084294
     18 C_0h         15.5143    1.8981   -2.1461 cr      1  lig      -0.064311
     19 C_0i         15.2248    2.8239   -3.1772 cs      1  lig       0.299401
     20 N_0j         14.9106    4.1194   -2.9755 nw      1  lig      -0.544914
     21 C_0k         14.8694    4.5737   -1.7085 ct      1  lig       0.229953
     22 C_0l         15.1718    3.7657   -0.6025 cw      1  lig      -0.057845
     23 C_0m         15.1261    4.3202    0.7378 cA      1  lig       0.261479
     24 N_0n         15.0921    4.7635    1.8043 nA      1  lig      -0.405065
     25 C_0o         15.5071    2.4172   -0.8297 cB      1  lig      -0.051506
     26 C_0p         15.3076   -0.5489   -1.5396 cC      1  lig      -0.090968
     27 C_0q         13.1927   -2.6018   -0.6954 cD      1  lig       0.437805
     28 O_0r         12.2932   -2.5477   -1.5429 o0      1  lig      -0.404577
     29 H_0s         11.3749   -1.1305    1.0630 h0      1  lig       0.096639
     30 H_0t         10.9510   -2.8405    0.9208 h6      1  lig       0.096639
     31 H_0u         11.7360   -2.2652    2.3861 h7      1  lig       0.096639
     32 H_0v         15.3521   -2.4194    2.9993 h8      1  lig       0.431142
     33 H_0w         16.1636   -2.8377    0.7119 h9      1  lig       0.329833
     34 H_0x         16.8740   -4.2216   -1.8420 hb      1  lig       0.136913
     35 H_0y         17.2613   -6.6012   -2.3267 hd      1  lig       0.161085
     36 H_0z         15.4672   -8.2799   -1.8381 he      1  lig       0.154510
     37 H_10         13.3211   -7.5360   -0.8632 hf      1  lig       0.161085
     38 H_11         12.9015   -5.1786   -0.4575 hg      1  lig       0.136913
     39 H_12         15.6765   -3.3054   -3.5439 hh      1  lig       0.184815
     40 H_13         16.6581   -1.6222   -5.0016 hi      1  lig       0.178154
     41 H_14         16.6034    0.7570   -4.4053 hj      1  lig       0.141669
     42 H_15         15.1797    2.5037   -4.2055 hk      1  lig       0.086614
     43 H_16         14.5905    5.6109   -1.5790 hl      1  lig       0.136342
     44 H_17         15.7415    1.7791    0.0069 hm      1  lig       0.155158
     45 H_18         14.9206   -0.2492   -0.5793 hq      1  lig       0.068737
     46 H_19         13.6860   -2.0579    3.2949 hr      1  lig       0.431142
@<TRIPOS>BOND
     1     1     2    1
     2     1    29    1
     3     1    30    1
     4     1    31    1
     5     2     3    1
     6     2    27    1
     7     3     4    1
     8     3     5    2
     9     4    32    1
    10     4    46    1
    11     5     6    1
    12     5    33    1
    13     6     7    1
    14     6    13    1
    15     6    27    1
    16     7     8    2
    17     7    12    1
    18     8     9    1
    19     8    34    1
    20     9    10    2
    21     9    35    1
    22    10    11    1
    23    10    36    1
    24    11    12    2
    25    11    37    1
    26    12    38    1
    27    13    14    2
    28    13    26    1
    29    14    15    1
    30    14    39    1
    31    15    16    2
    32    15    40    1
    33    16    17    1
    34    16    41    1
    35    17    18    1
    36    17    26    2
    37    18    19    2
    38    18    25    1
    39    19    20    1
    40    19    42    1
    41    20    21    2
    42    21    22    1
    43    21    43    1
    44    22    23    1
    45    22    25    2
    46    23    24    3
    47    25    44    1
    48    26    45    1
    49    27    28    2
