@<TRIPOS>MOLECULE
lig
  47   50 0 0 0
SMALL
NO_CHARGES


@<TRIPOS>ATOM
      1 C_00         15.3153    5.5063    2.8950 c4      1  lig      -0.146255
      2 C_01         15.2763    4.6943    1.6710 c5      1  lig       0.043781
      3 C_02         15.2920    4.0725    0.6202 c6      1  lig      -0.326793
      4 C_03         15.3508    3.4487   -0.6906 c7      1  lig       0.047825
      5 C_04         15.1653    4.2390   -1.8343 c8      1  lig       0.275766
      6 N_05         15.2379    3.7478   -3.0807 n0      1  lig      -0.564882
      7 C_06         15.4741    2.4308   -3.2306 c9      1  lig       0.256997
      8 C_07         15.6500    1.5168   -2.1649 cb      1  lig      -0.111173
      9 C_08         15.8251    0.0635   -2.4272 ci      1  lig      -0.050243
     10 C_09         16.3445   -0.3778   -3.6611 cj      1  lig      -0.064276
     11 C_0a         16.4139   -1.7402   -3.9775 ck      1  lig      -0.224259
     12 C_0b         15.9405   -2.7037   -3.0749 cm      1  lig      -0.030953
     13 C_0c         15.4459   -2.3239   -1.8037 cn      1  lig       0.027358
     14 C_0d         14.8513   -3.3203   -0.7684 co      1  lig      -0.041270
     15 C_0e         15.0823   -4.8499   -0.8614 cq      1  lig      -0.147579
     16 C_0f         14.8182   -5.7095   -2.0747 cr      1  lig      -0.219365
     17 C_0g         16.2251   -5.5702   -1.5443 cs      1  lig      -0.219365
     18 N_0h         15.2665   -2.9519    0.5806 ng      1  lig      -0.348736
     19 C_0i         14.2391   -2.5906    1.3479 ct      1  lig       0.411928
     20 N_0j         14.3969   -2.2856    2.6385 nr      1  lig      -0.830148
     21 N_0k         13.0817   -2.6029    0.6692 nw      1  lig       0.067104
     22 C_0l         11.7632   -2.2010    1.1743 cw      1  lig      -0.043772
     23 C_0m         13.3393   -3.0536   -0.6601 cA      1  lig       0.346981
     24 O_0n         12.4758   -3.1864   -1.5335 o0      1  lig      -0.391781
     25 C_0o         15.4218   -0.9298   -1.5003 cB      1  lig      -0.091380
     26 C_0p         15.6013    2.0714   -0.8642 cC      1  lig      -0.021595
     27 H_0q         14.7230    6.4085    2.7703 h0      1  lig       0.091134
     28 H_0r         14.9101    4.9397    3.7303 h6      1  lig       0.091134
     29 H_0s         16.3443    5.7817    3.1250 h7      1  lig       0.091134
     30 H_0t         14.9637    5.2976   -1.7524 h8      1  lig       0.103751
     31 H_0u         15.4797    2.0984   -4.2571 h9      1  lig       0.085049
     32 H_0v         16.6786    0.3258   -4.4064 hb      1  lig       0.151670
     33 H_0w         16.8075   -2.0384   -4.9385 hd      1  lig       0.175785
     34 H_0x         15.9686   -3.7185   -3.4242 he      1  lig       0.138270
     35 H_0y         14.7743   -5.3363    0.0640 hf      1  lig       0.167487
     36 H_0z         14.3147   -6.6618   -1.9195 hg      1  lig       0.136538
     37 H_10         14.5666   -5.2132   -3.0007 hh      1  lig       0.136538
     38 H_11         16.9323   -5.0170   -2.1448 hi      1  lig       0.136538
     39 H_12         16.6531   -6.4222   -1.0195 hj      1  lig       0.136538
     40 H_13         16.2430   -2.9601    0.8794 hk      1  lig       0.382869
     41 H_14         13.6498   -1.9784    3.2585 hl      1  lig       0.450234
     42 H_15         10.9579   -2.6949    0.6300 hm      1  lig       0.083649
     43 H_16         11.6593   -2.4477    2.2305 hq      1  lig       0.083649
     44 H_17         11.6439   -1.1246    1.0545 hr      1  lig       0.083649
     45 H_18         15.0153   -0.6036   -0.5544 ht      1  lig       0.074973
     46 H_19         15.7574    1.4435   -0.0039 hu      1  lig       0.145262
     47 H_1a         15.3336   -2.3087    3.0440 hv      1  lig       0.450234
@<TRIPOS>BOND
     1     1     2    1
     2     1    27    1
     3     1    28    1
     4     1    29    1
     5     2     3    3
     6     3     4    1
     7     4     5    2
     8     4    26    1
     9     5     6    1
    10     5    30    1
    11     6     7    2
    12     7     8    1
    13     7    31    1
    14     8     9    1
    15     8    26    2
    16     9    10    2
    17     9    25    1
    18    10    11    1
    19    10    32    1
    20    11    12    2
    21    11    33    1
    22    12    13    1
    23    12    34    1
    24    13    14    1
    25    13    25    2
    26    14    15    1
    27    14    18    1
    28    14    23    1
    29    15    16    1
    30    15    17    1
    31    15    35    1
    32    16    17    1
    33    16    36    1
    34    16    37    1
    35    17    38    1
    36    17    39    1
    37    18    19    2
    38    18    40    1
    39    19    20    1
    40    19    21    1
    41    20    41    1
    42    20    47    1
    43    21    22    1
    44    21    23    1
    45    22    42    1
    46    22    43    1
    47    22    44    1
    48    23    24    2
    49    25    45    1
    50    26    46    1
