@<TRIPOS>MOLECULE
lig
  45   48 0 0 0
SMALL
NO_CHARGES


@<TRIPOS>ATOM
      1 C_00         11.7087   -2.3257    1.2760 c4      1  lig      -0.080004
      2 N_01         13.0268   -2.6680    0.7261 n0      1  lig       0.000929
      3 C_02         14.2004   -2.6361    1.3737 c5      1  lig       0.389798
      4 N_03         14.3830   -2.3568    2.6674 ng      1  lig      -0.758601
      5 N_04         15.2173   -2.9288    0.5653 nr      1  lig      -0.255614
      6 C_05         14.7842   -3.2713   -0.7916 c6      1  lig      -0.075689
      7 C_06         15.1329   -4.7525   -1.0673 c7      1  lig      -0.040886
      8 C_07         14.2837   -5.6424   -1.7688 c8      1  lig      -0.100004
      9 C_08         14.6395   -6.9945   -1.9475 c9      1  lig      -0.153709
     10 C_09         15.8632   -7.4748   -1.4526 cb      1  lig      -0.086277
     11 C_0a         16.7337   -6.6012   -0.7899 ci      1  lig      -0.153709
     12 C_0b         16.3585   -5.2630   -0.5886 cj      1  lig      -0.100004
     13 C_0c         15.3568   -2.2699   -1.8111 ck      1  lig       0.058895
     14 C_0d         15.9115   -2.6866   -3.0438 cm      1  lig      -0.119666
     15 C_0e         16.3923   -1.7309   -3.9571 cn      1  lig      -0.228355
     16 C_0f         16.3151   -0.3584   -3.6589 co      1  lig      -0.039433
     17 C_0g         15.7903    0.0946   -2.4312 cq      1  lig      -0.021065
     18 C_0h         15.7052    1.5402   -2.1087 cr      1  lig       0.116707
     19 C_0i         15.6969    1.9913   -0.7745 cs      1  lig      -0.262842
     20 C_0j         15.5589    3.3571   -0.4899 ct      1  lig       0.250240
     21 N_0k         15.4374    4.2916   -1.4442 nw      1  lig      -0.527496
     22 C_0l         15.4666    3.8814   -2.7239 cw      1  lig       0.250240
     23 C_0m         15.5980    2.5333   -3.1039 cA      1  lig      -0.230187
     24 C_0n         15.3231   -0.8816   -1.5215 cB      1  lig      -0.099043
     25 C_0o         13.2648   -3.0328   -0.6326 cC      1  lig       0.433287
     26 O_0p         12.3816   -3.0977   -1.4960 o0      1  lig      -0.405827
     27 H_0q         11.5213   -1.2620    1.1331 h0      1  lig       0.095787
     28 H_0r         10.9140   -2.8804    0.7766 h6      1  lig       0.095787
     29 H_0s         11.6583   -2.5490    2.3412 h7      1  lig       0.095787
     30 H_0t         15.3295   -2.3605    3.0509 h8      1  lig       0.427846
     31 H_0u         16.1982   -2.9235    0.8445 h9      1  lig       0.341870
     32 H_0v         13.3388   -5.3138   -2.1640 hb      1  lig       0.134744
     33 H_0w         13.9699   -7.6687   -2.4605 hd      1  lig       0.161189
     34 H_0x         16.1378   -8.5093   -1.5608 he      1  lig       0.154347
     35 H_0y         17.6820   -6.9557   -0.4103 hf      1  lig       0.161189
     36 H_0z         17.0246   -4.6267   -0.0348 hg      1  lig       0.134744
     37 H_10         15.9759   -3.7327   -3.3123 hh      1  lig       0.183004
     38 H_11         16.8183   -2.0431   -4.9001 hi      1  lig       0.182155
     39 H_12         16.6698    0.3519   -4.3887 hj      1  lig       0.142717
     40 H_13         15.8060    1.3012    0.0416 hk      1  lig       0.117277
     41 H_14         15.5470    3.7065    0.5323 hl      1  lig       0.087794
     42 H_15         15.3627    4.6606   -3.4623 hm      1  lig       0.093399
     43 H_16         15.5837    2.2733   -4.1516 hq      1  lig       0.117277
     44 H_17         14.8941   -0.5486   -0.5886 hr      1  lig       0.083556
     45 H_18         13.6449   -2.0632    3.3051 ht      1  lig       0.427846
@<TRIPOS>BOND
     1     1     2    1
     2     1    27    1
     3     1    28    1
     4     1    29    1
     5     2     3    1
     6     2    25    1
     7     3     4    1
     8     3     5    2
     9     4    30    1
    10     4    45    1
    11     5     6    1
    12     5    31    1
    13     6     7    1
    14     6    13    1
    15     6    25    1
    16     7     8    2
    17     7    12    1
    18     8     9    1
    19     8    32    1
    20     9    10    2
    21     9    33    1
    22    10    11    1
    23    10    34    1
    24    11    12    2
    25    11    35    1
    26    12    36    1
    27    13    14    2
    28    13    24    1
    29    14    15    1
    30    14    37    1
    31    15    16    2
    32    15    38    1
    33    16    17    1
    34    16    39    1
    35    17    18    1
    36    17    24    2
    37    18    19    2
    38    18    23    1
    39    19    20    1
    40    19    40    1
    41    20    21    2
    42    20    41    1
    43    21    22    1
    44    22    23    2
    45    22    42    1
    46    23    43    1
    47    24    44    1
    48    25    26    2
