@<TRIPOS>MOLECULE
lig
  52   55 0 0 0
SMALL
NO_CHARGES


@<TRIPOS>ATOM
      1 C_00         11.6820   -2.1707    1.3298 c4      1  lig      -0.031443
      2 N_01         12.9759   -2.4302    0.6898 n0      1  lig       0.068226
      3 C_02         14.1857   -2.5033    1.2745 c5      1  lig       0.224183
      4 N_03         14.4361   -2.3451    2.5798 ng      1  lig      -0.748534
      5 N_04         15.1499   -2.7842    0.3899 nr      1  lig      -0.034382
      6 C_05         14.6008   -2.9822   -0.9565 c6      1  lig      -0.043831
      7 C_06         15.1276   -1.9196   -1.9457 c7      1  lig       0.005514
      8 C_07         15.4911   -2.2559   -3.2691 c8      1  lig      -0.059062
      9 C_08         16.0026   -1.2814   -4.1316 c9      1  lig      -0.219404
     10 C_09         16.0562    0.0656   -3.7342 cb      1  lig      -0.074672
     11 C_0a         15.6099    0.4645   -2.4549 ci      1  lig      -0.010588
     12 C_0b         15.4769    1.9021   -2.1038 cj      1  lig       0.003150
     13 C_0c         15.1741    2.8578   -3.1038 ck      1  lig      -0.128615
     14 C_0d         14.9081    4.2029   -2.7794 cm      1  lig      -0.183278
     15 C_0e         14.9471    4.6239   -1.4406 cn      1  lig      -0.038010
     16 C_0f         15.2835    3.7048   -0.4343 co      1  lig      -0.072865
     17 Cl0g         15.3415    4.2337    1.2070 a0      1  lig      -0.090023
     18 C_0h         15.5532    2.3613   -0.7659 cq      1  lig      -0.004527
     19 C_0i         15.2059   -0.5552   -1.5583 cr      1  lig      -0.094653
     20 C_0j         14.7887   -4.4804   -1.3903 cs      1  lig      -0.029827
     21 C_0k         16.2630   -4.8725   -1.6061 ct      1  lig       0.000837
     22 C_0l         16.3888   -6.2770   -2.2013 cw      1  lig      -0.035914
     23 C_0m         15.8131   -7.2996   -1.2236 cA      1  lig      -0.050052
     24 C_0n         14.3456   -6.9746   -0.9188 cB      1  lig      -0.035914
     25 C_0o         14.1673   -5.5282   -0.4194 cC      1  lig       0.000837
     26 C_0p         13.1177   -2.6879   -0.7028 cD      1  lig       0.306724
     27 O_0q         12.1860   -2.7189   -1.5139 o0      1  lig      -0.386697
     28 H_0r         11.3564   -1.1585    1.0940 h0      1  lig       0.083972
     29 H_0s         10.9228   -2.8632    0.9660 h6      1  lig       0.083972
     30 H_0t         11.7457   -2.2845    2.4102 h7      1  lig       0.083972
     31 H_0u         13.7416   -2.0408    3.2608 h8      1  lig       0.428328
     32 H_0v         16.1420   -2.8464    0.6123 h9      1  lig       0.296873
     33 H_0w         15.4232   -3.2618   -3.6536 hb      1  lig       0.127557
     34 H_0x         16.3339   -1.5765   -5.1141 hd      1  lig       0.179289
     35 H_0y         16.4155    0.7934   -4.4473 he      1  lig       0.148360
     36 H_0z         15.0829    2.5513   -4.1351 hf      1  lig       0.140980
     37 H_10         14.6436    4.9090   -3.5548 hg      1  lig       0.168995
     38 H_11         14.7210    5.6482   -1.1823 hh      1  lig       0.148200
     39 H_12         15.7987    1.6737    0.0263 hi      1  lig       0.094178
     40 H_13         14.8764   -0.2706   -0.5717 hj      1  lig       0.040785
     41 H_14         14.2658   -4.6096   -2.3387 hk      1  lig       0.103405
     42 H_15         16.7767   -4.1756   -2.2561 hl      1  lig       0.000248
     43 H_16         16.7869   -4.8372   -0.6499 hm      1  lig       0.000248
     44 H_17         17.4336   -6.5015   -2.4013 hq      1  lig       0.037366
     45 H_18         15.8707   -6.3310   -3.1600 hr      1  lig       0.037366
     46 H_19         15.9010   -8.3040   -1.6298 ht      1  lig       0.027585
     47 H_1a         16.4015   -7.2923   -0.3053 hu      1  lig       0.027585
     48 H_1b         13.7480   -7.1276   -1.8192 hv      1  lig       0.037366
     49 H_1c         13.9654   -7.6729   -0.1726 hy      1  lig       0.037366
     50 H_1d         14.6309   -5.4382    0.5640 hz      1  lig       0.000248
     51 H_1e         13.1008   -5.3581   -0.2716 hA      1  lig       0.000248
     52 H_1f         15.3986   -2.4098    2.9173 hB      1  lig       0.428328
@<TRIPOS>BOND
     1     1     2    1
     2     1    28    1
     3     1    29    1
     4     1    30    1
     5     2     3    1
     6     2    26    1
     7     3     4    1
     8     3     5    2
     9     4    31    1
    10     4    52    1
    11     5     6    1
    12     5    32    1
    13     6     7    1
    14     6    20    1
    15     6    26    1
    16     7     8    2
    17     7    19    1
    18     8     9    1
    19     8    33    1
    20     9    10    2
    21     9    34    1
    22    10    11    1
    23    10    35    1
    24    11    12    1
    25    11    19    2
    26    12    13    2
    27    12    18    1
    28    13    14    1
    29    13    36    1
    30    14    15    2
    31    14    37    1
    32    15    16    1
    33    15    38    1
    34    16    17    1
    35    16    18    2
    36    18    39    1
    37    19    40    1
    38    20    21    1
    39    20    25    1
    40    20    41    1
    41    21    22    1
    42    21    42    1
    43    21    43    1
    44    22    23    1
    45    22    44    1
    46    22    45    1
    47    23    24    1
    48    23    46    1
    49    23    47    1
    50    24    25    1
    51    24    48    1
    52    24    49    1
    53    25    50    1
    54    25    51    1
    55    26    27    2
