@<TRIPOS>MOLECULE
lig
  55   59 0 0 0
SMALL
NO_CHARGES


@<TRIPOS>ATOM
      1 O_00          8.7499    9.1122   17.0454 o0      1  lig      -0.486302
      2 C_01          7.7997    8.4016   17.3167 c4      1  lig       0.418830
      3 N_02          7.5779    7.1693   16.8413 n0      1  lig      -0.055649
      4 C_03          8.3689    6.3364   16.0194 c5      1  lig       0.020315
      5 C_04          9.7668    6.4147   16.0004 c6      1  lig      -0.116159
      6 C_05         10.5150    5.4886   15.2816 c7      1  lig      -0.147211
      7 C_06          9.8750    4.4611   14.5948 c8      1  lig      -0.137568
      8 C_07          8.4863    4.3866   14.5828 c9      1  lig      -0.205845
      9 C_08          7.7150    5.3324   15.2703 cb      1  lig      -0.013159
     10 N_09          6.3049    5.3200   15.1815 ng      1  lig       0.000234
     11 C_0a          5.5929    4.0459   15.0839 ci      1  lig       0.047242
     12 C_0b          4.0683    4.2215   15.2729 cj      1  lig      -0.022950
     13 N_0c          3.5568    5.3004   14.3496 nr      1  lig      -0.275870
     14 C_0d          4.2943    6.6069   14.5125 ck      1  lig       0.040130
     15 C_0e          5.7975    6.3804   14.3095 cm      1  lig       0.035960
     16 C_0f          6.7295    8.9105   18.1454 cn      1  lig      -0.148082
     17 S_0g          5.8700    7.7031   19.0406 s0      1  lig      -0.186397
     18 C_0h          4.5893    8.8564   19.1224 co      1  lig       0.367689
     19 C_0i          3.2593    8.3650   19.2578 cq      1  lig      -0.042337
     20 C_0j          2.3586    9.0680   20.0544 cr      1  lig      -0.073305
     21 C_0k          1.0320    8.6430   20.1908 cs      1  lig      -0.286116
     22 C_0l          0.6250    7.5030   19.5069 ct      1  lig       0.316758
     23 O_0m         -0.6251    6.9563   19.4993 o1      1  lig      -0.375788
     24 C_0n         -0.5992    5.8116   18.6486 cw      1  lig       0.074962
     25 C_0o          0.8289    5.6246   18.1023 cA      1  lig      -0.007265
     26 C_0p          1.5146    6.8020   18.7268 cB      1  lig       0.032221
     27 C_0q          2.8359    7.2053   18.5813 cC      1  lig      -0.291632
     28 H_0r          6.7749    6.6795   17.2081 h0      1  lig       0.021976
     29 H_0s         10.2914    7.1992   16.5238 h6      1  lig       0.167056
     30 H_0t         11.5916    5.5709   15.2516 h7      1  lig       0.166305
     31 H_0u         10.4571    3.7203   14.0665 h8      1  lig       0.156222
     32 H_0v          8.0209    3.5773   14.0410 h9      1  lig       0.148655
     33 H_0w          5.7887    3.6090   14.1035 hb      1  lig       0.047214
     34 H_0x          5.9657    3.3362   15.8234 hd      1  lig       0.047214
     35 H_0y          3.5490    3.2834   15.0760 he      1  lig       0.107828
     36 H_0z          3.8498    4.4955   16.3058 hf      1  lig       0.107828
     37 H_10          3.6773    4.9848   13.3978 hg      1  lig       0.306257
     38 H_11          3.9079    7.3336   13.7975 hh      1  lig       0.082897
     39 H_12          4.0966    7.0034   15.5095 hi      1  lig       0.082897
     40 H_13          6.3351    7.3101   14.5011 hj      1  lig       0.045802
     41 H_14          5.9728    6.1130   13.2669 hk      1  lig       0.045802
     42 H_15          2.6650    9.9542   20.5903 hl      1  lig       0.140595
     43 H_16          0.3382    9.1868   20.8147 hm      1  lig       0.196635
     44 H_17         -0.8980    4.9367   19.2269 hq      1  lig       0.081578
     45 H_18         -1.3138    5.9303   17.8336 hr      1  lig       0.081578
     46 H_19          1.2740    4.6814   18.4201 ht      1  lig       0.033485
     47 H_1a          0.8613    5.6909   17.0144 hu      1  lig       0.033485
     48 H_1b          3.4978    6.6218   17.9595 hv      1  lig       0.192880
     49 H_1c          2.5726    5.4477   14.5226 hy      1  lig       0.306257
     50 C_1d          6.2257   10.1723   18.3460 cD      1  lig       0.339002
     51 N_1e          4.9549   10.1226   18.9136 nw      1  lig      -0.468986
     52 C_1f          6.7937   11.4826   17.8943 cE      1  lig      -0.243913
     53 H_1g          6.2913   12.3249   18.3698 hz      1  lig       0.096915
     54 H_1h          7.8541   11.5538   18.1379 hA      1  lig       0.096915
     55 H_1i          6.6962   11.6015   16.8152 hB      1  lig       0.096915
@<TRIPOS>BOND
     1     1     2    2
     2     2     3    1
     3     2    16    1
     4     3     4    1
     5     3    28    1
     6     4     9    1
     7     4     5    2
     8     5     6    1
     9     5    29    1
    10     6     7    2
    11     6    30    1
    12     7     8    1
    13     7    31    1
    14     8     9    2
    15     8    32    1
    16     9    10    1
    17    10    15    1
    18    10    11    1
    19    11    12    1
    20    11    33    1
    21    11    34    1
    22    12    13    1
    23    12    35    1
    24    12    36    1
    25    13    14    1
    26    13    37    1
    27    13    49    1
    28    14    15    1
    29    14    38    1
    30    14    39    1
    31    15    40    1
    32    15    41    1
    33    16    17    1
    34    16    50    2
    35    17    18    1
    36    18    19    1
    37    18    51    2
    38    19    27    1
    39    19    20    2
    40    20    21    1
    41    20    42    1
    42    21    22    2
    43    21    43    1
    44    22    26    1
    45    22    23    1
    46    23    24    1
    47    24    25    1
    48    24    44    1
    49    24    45    1
    50    25    26    1
    51    25    46    1
    52    25    47    1
    53    26    27    2
    54    27    48    1
    55    50    51    1
    56    50    52    1
    57    52    53    1
    58    52    54    1
    59    52    55    1
