@<TRIPOS>MOLECULE
lig
  50   54 0 0 0
SMALL
NO_CHARGES


@<TRIPOS>ATOM
      1 O_00          8.7499    9.1122   17.0454 o0      1  lig      -0.489872
      2 C_01          7.7834    8.4108   17.3095 c4      1  lig       0.492614
      3 N_02          7.5779    7.1693   16.8413 n0      1  lig      -0.119176
      4 C_03          8.3689    6.3364   16.0194 c5      1  lig       0.029600
      5 C_04          9.7668    6.4147   16.0004 c6      1  lig      -0.123814
      6 C_05         10.5150    5.4886   15.2816 c7      1  lig      -0.143398
      7 C_06          9.8750    4.4611   14.5948 c8      1  lig      -0.152592
      8 C_07          8.4863    4.3866   14.5828 c9      1  lig      -0.173380
      9 C_08          7.7150    5.3324   15.2703 cb      1  lig      -0.001312
     10 N_09          6.3049    5.3200   15.1815 ng      1  lig      -0.018908
     11 C_0a          5.5929    4.0459   15.0839 ci      1  lig       0.027698
     12 C_0b          4.0683    4.2215   15.2729 cj      1  lig       0.014599
     13 N_0c          3.5568    5.3004   14.3496 nr      1  lig      -0.304258
     14 C_0d          4.2943    6.6069   14.5125 ck      1  lig      -0.004904
     15 C_0e          5.7975    6.3804   14.3095 cm      1  lig       0.045710
     16 C_0f          6.6003    8.9294   18.0716 cn      1  lig       0.191039
     17 C_0g          4.6316    8.7907   18.9903 co      1  lig       0.417489
     18 C_0h          3.2742    8.3636   19.2446 cq      1  lig      -0.083533
     19 C_0i          2.3586    9.0680   20.0544 cr      1  lig      -0.097134
     20 C_0j          1.0320    8.6430   20.1908 cs      1  lig      -0.343459
     21 C_0k          0.6250    7.5030   19.5069 ct      1  lig       0.323089
     22 O_0l         -0.6251    6.9563   19.4993 o1      1  lig      -0.395719
     23 C_0m         -0.5992    5.8116   18.6486 cw      1  lig       0.286680
     24 C_0n          1.5146    6.8020   18.7268 cA      1  lig       0.376432
     25 C_0o          2.8359    7.2053   18.5813 cB      1  lig      -0.393419
     26 H_0p          6.7749    6.6795   17.2081 h0      1  lig       0.002981
     27 H_0q         10.2914    7.1992   16.5238 h6      1  lig       0.166134
     28 H_0r         11.5916    5.5709   15.2516 h7      1  lig       0.166968
     29 H_0s         10.4571    3.7203   14.0665 h8      1  lig       0.161349
     30 H_0t          8.0209    3.5773   14.0410 h9      1  lig       0.140031
     31 H_0u          5.7887    3.6090   14.1035 hb      1  lig       0.050345
     32 H_0v          5.9657    3.3362   15.8234 hd      1  lig       0.050345
     33 H_0w          3.5490    3.2834   15.0760 he      1  lig       0.091607
     34 H_0x          3.8498    4.4955   16.3058 hf      1  lig       0.091607
     35 H_0y          3.6773    4.9848   13.3978 hg      1  lig       0.314088
     36 H_0z          3.9079    7.3336   13.7975 hh      1  lig       0.105035
     37 H_10          4.0966    7.0034   15.5095 hi      1  lig       0.105035
     38 H_11          6.3351    7.3101   14.5011 hj      1  lig       0.048197
     39 H_12          5.9728    6.1130   13.2669 hk      1  lig       0.048197
     40 H_13          2.6650    9.9542   20.5903 hl      1  lig       0.150158
     41 H_14          0.3382    9.1868   20.8147 hm      1  lig       0.222899
     42 H_15         -0.8980    4.9367   19.2269 hq      1  lig       0.094389
     43 H_16         -1.3138    5.9303   17.8336 hr      1  lig       0.094389
     44 H_17          3.4978    6.6218   17.9595 ht      1  lig       0.241379
     45 H_18          2.5726    5.4477   14.5226 hu      1  lig       0.314088
     46 C_19          5.7132    8.0161   18.7057 cC      1  lig      -0.365205
     47 N_1a          6.1540   10.1739   18.1450 nw      1  lig      -0.206288
     48 O_1b          4.8815   10.0952   18.7257 o2      1  lig      -0.225204
     49 H_1c          5.7882    6.9470   18.8180 hv      1  lig       0.192553
     50 O_1d          0.7846    5.7090   18.1742 o3      1  lig      -0.415149
@<TRIPOS>BOND
     1     1     2    2
     2     2     3    1
     3     2    16    1
     4     3     4    1
     5     3    26    1
     6     4     9    1
     7     4     5    2
     8     5     6    1
     9     5    27    1
    10     6     7    2
    11     6    28    1
    12     7     8    1
    13     7    29    1
    14     8     9    2
    15     8    30    1
    16     9    10    1
    17    10    15    1
    18    10    11    1
    19    11    12    1
    20    11    31    1
    21    11    32    1
    22    12    13    1
    23    12    33    1
    24    12    34    1
    25    13    14    1
    26    13    35    1
    27    13    45    1
    28    14    15    1
    29    14    36    1
    30    14    37    1
    31    15    38    1
    32    15    39    1
    33    16    46    1
    34    16    47    2
    35    17    18    1
    36    17    46    2
    37    17    48    1
    38    18    25    1
    39    18    19    2
    40    19    20    1
    41    19    40    1
    42    20    21    2
    43    20    41    1
    44    21    24    1
    45    21    22    1
    46    22    23    1
    47    23    42    1
    48    23    43    1
    49    23    50    1
    50    24    25    2
    51    24    50    1
    52    25    44    1
    53    46    49    1
    54    47    48    1
