@<TRIPOS>MOLECULE
lig
  52   56 0 0 0
SMALL
NO_CHARGES


@<TRIPOS>ATOM
      1 O_00          8.7499    9.1122   17.0454 o0      1  lig      -0.532592
      2 C_01          7.7868    8.4086   17.3040 c4      1  lig       0.489767
      3 N_02          7.5779    7.1693   16.8413 n0      1  lig      -0.041271
      4 C_03          8.3689    6.3364   16.0194 c5      1  lig       0.020498
      5 C_04          9.7668    6.4147   16.0004 c6      1  lig      -0.142502
      6 C_05         10.5150    5.4886   15.2816 c7      1  lig      -0.144447
      7 C_06          9.8750    4.4611   14.5948 c8      1  lig      -0.130102
      8 C_07          8.4863    4.3866   14.5828 c9      1  lig      -0.210971
      9 C_08          7.7150    5.3324   15.2703 cb      1  lig      -0.006960
     10 N_09          6.3049    5.3200   15.1815 ng      1  lig       0.034728
     11 C_0a          5.5929    4.0459   15.0839 ci      1  lig       0.023167
     12 C_0b          4.0683    4.2215   15.2729 cj      1  lig       0.051150
     13 N_0c          3.5568    5.3004   14.3496 nr      1  lig      -0.357539
     14 C_0d          4.2943    6.6069   14.5125 ck      1  lig       0.033121
     15 C_0e          5.7975    6.3804   14.3095 cm      1  lig       0.031884
     16 C_0f          6.7024    8.8930   18.1726 cn      1  lig      -0.063823
     17 C_0g          6.7541   10.0384   18.9262 co      1  lig      -0.176283
     18 S_0h          5.2657   10.3084   19.7843 s0      1  lig       0.071739
     19 C_0i          4.6265    8.8337   19.0533 cq      1  lig       0.054214
     20 C_0j          3.2706    8.3676   19.2450 cr      1  lig      -0.003485
     21 C_0k          2.3586    9.0680   20.0544 cs      1  lig      -0.097074
     22 C_0l          1.0320    8.6430   20.1908 ct      1  lig      -0.285043
     23 C_0m          0.6250    7.5030   19.5069 cw      1  lig       0.295288
     24 O_0n         -0.6251    6.9563   19.4993 o1      1  lig      -0.372586
     25 C_0o         -0.5992    5.8116   18.6486 cA      1  lig       0.044111
     26 C_0p          0.8289    5.6246   18.1023 cB      1  lig      -0.080242
     27 C_0q          1.5146    6.8020   18.7268 cC      1  lig       0.024350
     28 C_0r          2.8359    7.2053   18.5813 cD      1  lig      -0.185614
     29 N_0s          5.4951    8.2123   18.2661 nw      1  lig      -0.084871
     30 H_0t          6.6730    6.7622   17.0262 h0      1  lig      -0.080638
     31 H_0u         10.2913    7.1772   16.5562 h6      1  lig       0.180092
     32 H_0v         11.5928    5.5594   15.2661 h7      1  lig       0.164319
     33 H_0w         10.4574    3.7160   14.0729 h8      1  lig       0.154188
     34 H_0x          8.0275    3.5874   14.0234 h9      1  lig       0.153222
     35 H_0y          5.7941    3.6142   14.1028 hb      1  lig       0.050073
     36 H_0z          5.9587    3.3291   15.8197 hd      1  lig       0.050073
     37 H_10          3.5500    3.2844   15.0690 he      1  lig       0.076932
     38 H_11          3.8458    4.4913   16.3063 hf      1  lig       0.076932
     39 H_12          3.6750    4.9846   13.3976 hg      1  lig       0.306765
     40 H_13          3.9076    7.3317   13.7958 hh      1  lig       0.066026
     41 H_14          4.0772    7.0031   15.5040 hi      1  lig       0.066026
     42 H_15          6.3539    7.3067   14.4584 hj      1  lig       0.053474
     43 H_16          5.9866    6.0777   13.2790 hk      1  lig       0.053474
     44 H_17          7.5797   10.7310   19.0025 hl      1  lig       0.250836
     45 H_18          2.6689    9.9541   20.5886 hm      1  lig       0.153768
     46 H_19          0.3380    9.1866   20.8147 hq      1  lig       0.208237
     47 H_1a         -0.8974    4.9369   19.2275 hr      1  lig       0.108277
     48 H_1b         -1.3141    5.9295   17.8338 ht      1  lig       0.108277
     49 H_1c          1.2741    4.6812   18.4197 hu      1  lig       0.051648
     50 H_1d          0.8613    5.6914   17.0144 hv      1  lig       0.051648
     51 H_1e          3.4917    6.6158   17.9587 hy      1  lig       0.130974
     52 H_1f          2.5733    5.4496   14.5248 hz      1  lig       0.306765
@<TRIPOS>BOND
     1     1     2    2
     2     2     3    1
     3     2    16    1
     4     3     4    1
     5     3    30    1
     6     4     9    1
     7     4     5    2
     8     5     6    1
     9     5    31    1
    10     6     7    2
    11     6    32    1
    12     7     8    1
    13     7    33    1
    14     8     9    2
    15     8    34    1
    16     9    10    1
    17    10    15    1
    18    10    11    1
    19    11    12    1
    20    11    35    1
    21    11    36    1
    22    12    13    1
    23    12    37    1
    24    12    38    1
    25    13    14    1
    26    13    39    1
    27    13    52    1
    28    14    15    1
    29    14    40    1
    30    14    41    1
    31    15    42    1
    32    15    43    1
    33    16    29    1
    34    16    17    2
    35    17    18    1
    36    17    44    1
    37    18    19    1
    38    19    20    1
    39    19    29    2
    40    20    28    1
    41    20    21    2
    42    21    22    1
    43    21    45    1
    44    22    23    2
    45    22    46    1
    46    23    27    1
    47    23    24    1
    48    24    25    1
    49    25    26    1
    50    25    47    1
    51    25    48    1
    52    26    27    1
    53    26    49    1
    54    26    50    1
    55    27    28    2
    56    28    51    1
