@<TRIPOS>MOLECULE
lig
  46   49 0 0 0
SMALL
NO_CHARGES


@<TRIPOS>ATOM
      1 N_00          6.7162   10.4574   18.7392 n0      1  lig      -0.913583
      2 C_01          5.7868    9.8378   19.4704 c4      1  lig       0.668294
      3 O_02          5.3639   10.3036   20.5257 o0      1  lig      -0.509511
      4 C_03          5.2126    8.5726   18.8992 c5      1  lig      -0.031094
      5 C_04          5.9794    7.7237   18.0906 c6      1  lig      -0.014566
      6 N_05          5.5020    6.6416   17.4387 ng      1  lig      -0.462256
      7 C_06          4.2004    6.2810   17.5826 c7      1  lig       0.544561
      8 N_07          3.7504    5.1543   16.8685 nr      1  lig      -0.699012
      9 C_08          4.4045    4.7346   15.6252 c8      1  lig       0.139912
     10 C_09          3.9460    3.3182   15.2226 c9      1  lig      -0.056178
     11 C_0a          4.5252    2.8850   13.8643 cb      1  lig      -0.045151
     12 C_0b          4.2005    3.9081   12.7613 ci      1  lig      -0.011243
     13 N_0c          4.7026    5.2693   13.1737 nw      1  lig      -0.093011
     14 C_0d          4.1570    5.7653   14.4934 cj      1  lig      -0.151303
     15 C_0e          3.3420    7.0116   18.4284 ck      1  lig      -0.027385
     16 C_0f          1.9602    6.8125   18.7771 cm      1  lig      -0.296580
     17 C_0g          1.4209    7.7536   19.6583 cn      1  lig       0.025776
     18 C_0h          0.0785    7.8058   20.2392 co      1  lig       0.060158
     19 C_0i         -0.8471    6.7839   19.9811 cq      1  lig      -0.153866
     20 C_0j         -2.1272    6.8124   20.5348 cr      1  lig      -0.091755
     21 C_0k         -2.5067    7.8698   21.3586 cs      1  lig      -0.002378
     22 Cl0l         -4.0919    7.9119   22.0383 a0      1  lig      -0.086868
     23 C_0m         -1.6045    8.8937   21.6309 ct      1  lig      -0.092257
     24 C_0n         -0.3276    8.8618   21.0750 cw      1  lig      -0.107161
     25 S_0o          2.6120    8.9601   20.0511 s0      1  lig       0.025262
     26 C_0p          3.8657    8.1755   19.0816 cA      1  lig      -0.018067
     27 H_0q          7.1106   11.3257   19.0705 h0      1  lig       0.401502
     28 H_0r          7.0200   10.0606   17.8623 h6      1  lig       0.401502
     29 H_0s          7.0378    7.8906   17.9502 h7      1  lig       0.145551
     30 H_0t          2.9939    4.6508   17.3096 h8      1  lig       0.387629
     31 H_0u          5.4705    4.6829   15.8468 h9      1  lig       0.074791
     32 H_0v          4.2312    2.5922   15.9840 hb      1  lig       0.068558
     33 H_0w          2.8584    3.2915   15.1564 hd      1  lig       0.068558
     34 H_0x          5.6049    2.7576   13.9429 he      1  lig       0.060292
     35 H_0y          4.1249    1.9102   13.5857 hf      1  lig       0.060292
     36 H_0z          4.6809    3.6102   11.8293 hg      1  lig       0.097389
     37 H_10          3.1285    3.9387   12.5666 hh      1  lig       0.097389
     38 H_11          5.7058    5.2213   13.2808 hi      1  lig       0.262382
     39 H_12          3.0931    5.9797   14.3923 hj      1  lig       0.136813
     40 H_13          4.6456    6.7079   14.7399 hk      1  lig       0.136813
     41 H_14          1.3381    6.0221   18.4044 hl      1  lig       0.150108
     42 H_15         -0.5762    5.9488   19.3522 hm      1  lig       0.147705
     43 H_16         -2.8230    6.0133   20.3252 hq      1  lig       0.145294
     44 H_17         -1.8947    9.7140   22.2709 hr      1  lig       0.151339
     45 H_18          0.3439    9.6777   21.2972 ht      1  lig       0.142973
     46 H_19          4.4453    5.9480   12.4714 hu      1  lig       0.262382
@<TRIPOS>BOND
     1     1     2    1
     2     1    27    1
     3     1    28    1
     4     2     3    2
     5     2     4    1
     6     4    26    2
     7     4     5    1
     8     5     6    2
     9     5    29    1
    10     6     7    1
    11     7     8    1
    12     7    15    2
    13     8     9    1
    14     8    30    1
    15     9    14    1
    16     9    10    1
    17     9    31    1
    18    10    11    1
    19    10    32    1
    20    10    33    1
    21    11    12    1
    22    11    34    1
    23    11    35    1
    24    12    13    1
    25    12    36    1
    26    12    37    1
    27    13    14    1
    28    13    38    1
    29    13    46    1
    30    14    39    1
    31    14    40    1
    32    15    26    1
    33    15    16    1
    34    16    17    2
    35    16    41    1
    36    17    18    1
    37    17    25    1
    38    18    24    1
    39    18    19    2
    40    19    20    1
    41    19    42    1
    42    20    21    2
    43    20    43    1
    44    21    22    1
    45    21    23    1
    46    23    24    2
    47    23    44    1
    48    24    45    1
    49    25    26    1
