@<TRIPOS>MOLECULE
lig
  45   48 0 0 0
SMALL
NO_CHARGES


@<TRIPOS>ATOM
      1 N_00          6.9242   10.2708   19.0112 n0      1  lig      -0.786808
      2 C_01          5.7994    9.7932   19.5511 c4      1  lig       0.513496
      3 O_02          5.2992   10.2793   20.5635 o0      1  lig      -0.497824
      4 C_03          5.2126    8.5726   18.8992 c5      1  lig       0.393514
      5 N_04          5.9794    7.7237   18.0906 ng      1  lig      -0.360313
      6 N_05          5.5020    6.6416   17.4387 nr      1  lig      -0.328199
      7 C_06          4.2004    6.2810   17.5826 c6      1  lig       0.599614
      8 N_07          3.7504    5.1543   16.8685 nw      1  lig      -0.728046
      9 C_08          4.4045    4.7346   15.6252 c7      1  lig       0.106601
     10 C_09          3.9460    3.3182   15.2226 c8      1  lig      -0.057837
     11 C_0a          4.5252    2.8850   13.8643 c9      1  lig      -0.042698
     12 C_0b          4.2005    3.9081   12.7613 cb      1  lig      -0.005899
     13 N_0c          4.7026    5.2693   13.1737 nA      1  lig      -0.104383
     14 C_0d          4.1570    5.7653   14.4934 ci      1  lig      -0.173670
     15 C_0e          3.3420    7.0116   18.4284 cj      1  lig      -0.033608
     16 C_0f          1.9602    6.8125   18.7771 ck      1  lig      -0.294202
     17 C_0g          1.4209    7.7536   19.6583 cm      1  lig       0.033825
     18 C_0h          0.0785    7.8058   20.2392 cn      1  lig       0.067723
     19 C_0i         -0.8471    6.7839   19.9811 co      1  lig      -0.160465
     20 C_0j         -2.1272    6.8124   20.5348 cq      1  lig      -0.086140
     21 C_0k         -2.5067    7.8698   21.3586 cr      1  lig       0.007185
     22 Cl0l         -4.0919    7.9120   22.0382 a0      1  lig      -0.080427
     23 C_0m         -1.6045    8.8937   21.6309 cs      1  lig      -0.107287
     24 C_0n         -0.3276    8.8618   21.0750 ct      1  lig      -0.097599
     25 S_0o          2.6120    8.9601   20.0511 s0      1  lig       0.031403
     26 C_0p          3.8657    8.1755   19.0816 cw      1  lig      -0.090232
     27 H_0q          7.3734   11.0728   19.4282 h0      1  lig       0.375559
     28 H_0r          7.3214    9.8276   18.1960 h6      1  lig       0.375559
     29 H_0s          2.9682    4.6712   17.2872 h7      1  lig       0.391237
     30 H_0t          5.4705    4.6829   15.8467 h8      1  lig       0.080815
     31 H_0u          4.2312    2.5922   15.9840 h9      1  lig       0.073205
     32 H_0v          2.8584    3.2915   15.1564 hb      1  lig       0.073205
     33 H_0w          4.1249    1.9102   13.5857 hd      1  lig       0.060895
     34 H_0x          5.6049    2.7576   13.9429 he      1  lig       0.060895
     35 H_0y          4.6809    3.6102   11.8293 hf      1  lig       0.096890
     36 H_0z          3.1285    3.9387   12.5666 hg      1  lig       0.096890
     37 H_10          5.7058    5.2213   13.2808 hh      1  lig       0.268596
     38 H_11          3.0931    5.9797   14.3923 hi      1  lig       0.149820
     39 H_12          4.6456    6.7079   14.7399 hj      1  lig       0.149820
     40 H_13          1.3421    6.0135   18.4134 hk      1  lig       0.160202
     41 H_14         -0.5763    5.9488   19.3522 hl      1  lig       0.151143
     42 H_15         -2.8230    6.0133   20.3252 hm      1  lig       0.144588
     43 H_16         -1.8947    9.7140   22.2709 hq      1  lig       0.155386
     44 H_17          0.3439    9.6776   21.2972 hr      1  lig       0.148975
     45 H_18          4.4453    5.9480   12.4714 ht      1  lig       0.268596
@<TRIPOS>BOND
     1     1     2    1
     2     1    27    1
     3     1    28    1
     4     2     3    2
     5     2     4    1
     6     4    26    2
     7     4     5    1
     8     5     6    2
     9     6     7    1
    10     7     8    1
    11     7    15    2
    12     8     9    1
    13     8    29    1
    14     9    14    1
    15     9    10    1
    16     9    30    1
    17    10    11    1
    18    10    31    1
    19    10    32    1
    20    11    12    1
    21    11    33    1
    22    11    34    1
    23    12    13    1
    24    12    35    1
    25    12    36    1
    26    13    14    1
    27    13    37    1
    28    13    45    1
    29    14    38    1
    30    14    39    1
    31    15    26    1
    32    15    16    1
    33    16    17    2
    34    16    40    1
    35    17    18    1
    36    17    25    1
    37    18    24    1
    38    18    19    2
    39    19    20    1
    40    19    41    1
    41    20    21    2
    42    20    42    1
    43    21    22    1
    44    21    23    1
    45    23    24    2
    46    23    43    1
    47    24    44    1
    48    25    26    1
