@<TRIPOS>MOLECULE
lig
  32   33 0 0 0
SMALL
NO_CHARGES


@<TRIPOS>ATOM
      1 C_00         -1.9612   21.5502  -27.3300 c4      1  lig      -0.148400
      2 C_01         -1.2942   22.4120  -28.1957 c5      1  lig      -0.080500
      3 C_02         -1.9550   22.9520  -29.2938 c6      1  lig      -0.065200
      4 C_03         -3.2998   22.6223  -29.5426 c7      1  lig       0.144100
      5 C_04         -3.9689   21.7588  -28.6534 c8      1  lig      -0.069400
      6 C_05         -3.2917   21.2292  -27.5624 c9      1  lig      -0.079900
      7 Cl06         -5.6403   21.3533  -28.9190 a0      1  lig      -0.065600
      8 C_07         -4.0401   23.1522  -30.7110 cb      1  lig       0.466500
      9 O_08         -4.2265   22.4198  -31.6685 o0      1  lig      -0.470800
     10 N_09         -4.5133   24.4119  -30.6476 n0      1  lig      -0.335200
     11 C_0a         -5.2869   25.1112  -31.5800 ci      1  lig       0.170700
     12 C_0b         -5.9620   24.5479  -32.6807 cj      1  lig      -0.138800
     13 C_0c         -6.7806   25.3609  -33.4589 ck      1  lig       0.107600
     14 N_0d         -6.9234   26.6542  -33.1828 ng      1  lig      -0.553700
     15 C_0e         -6.2984   27.2317  -32.1577 cm      1  lig       0.563100
     16 C_0f         -5.5070   26.4571  -31.3066 cn      1  lig      -0.413300
     17 N_0g         -6.5391   28.5828  -31.8838 nr      1  lig      -0.485100
     18 C_0h         -5.7134   29.4445  -31.2331 co      1  lig       0.622800
     19 O_0i         -4.6156   29.1218  -30.8098 o1      1  lig      -0.570700
     20 C_0j         -6.2319   30.8471  -31.0310 cq      1  lig      -0.179400
     21 Cl0k         -1.1124   24.0506  -30.3318 a1      1  lig      -0.065700
     22 H_0l         -7.3054   30.9413  -31.1624 h0      1  lig       0.065600
     23 H_0m         -1.4436   21.1321  -26.4786 h6      1  lig       0.159700
     24 H_0n         -0.2591   22.6635  -28.0157 h7      1  lig       0.144500
     25 H_0o         -3.8111   20.5610  -26.8909 h8      1  lig       0.145400
     26 H_0p         -4.3168   24.9848  -29.8393 h9      1  lig       0.267200
     27 H_0q         -5.8400   23.4993  -32.9094 hb      1  lig       0.125500
     28 H_0r         -7.3119   24.9439  -34.3018 hd      1  lig       0.119900
     29 H_0s         -5.0645   26.9093  -30.4313 he      1  lig       0.215100
     30 H_0t         -7.4045   29.0126  -32.1802 hf      1  lig       0.272800
     31 H_0u         -5.7229   31.5232  -31.7179 hg      1  lig       0.065600
     32 H_0v         -5.9579   31.1937  -30.0346 hh      1  lig       0.065600
@<TRIPOS>BOND
     1     1     2    2
     2     1     6    1
     3     1    23    1
     4     2     3    1
     5     2    24    1
     6     3     4    2
     7     3    21    1
     8     4     5    1
     9     4     8    1
    10     5     6    2
    11     5     7    1
    12     6    25    1
    13     8     9    2
    14     8    10    1
    15    10    11    1
    16    10    26    1
    17    11    12    2
    18    11    16    1
    19    12    13    1
    20    12    27    1
    21    13    14    2
    22    13    28    1
    23    14    15    1
    24    15    16    2
    25    15    17    1
    26    16    29    1
    27    17    18    1
    28    17    30    1
    29    18    19    2
    30    18    20    1
    31    20    22    1
    32    20    31    1
    33    20    32    1
