@<TRIPOS>MOLECULE
lig
  39   41 0 0 0
SMALL
NO_CHARGES


@<TRIPOS>ATOM
      1 C_00         -1.9612   21.5502  -27.3300 c4      1  lig      -0.150400
      2 C_01         -1.2942   22.4120  -28.1957 c5      1  lig      -0.079700
      3 C_02         -1.9550   22.9520  -29.2938 c6      1  lig      -0.057900
      4 C_03         -3.2998   22.6223  -29.5426 c7      1  lig       0.125500
      5 C_04         -3.9689   21.7588  -28.6534 c8      1  lig      -0.055800
      6 C_05         -3.2917   21.2292  -27.5624 c9      1  lig      -0.080600
      7 Cl06         -5.6403   21.3533  -28.9190 a0      1  lig      -0.068200
      8 C_07         -4.0401   23.1522  -30.7110 cb      1  lig       0.480300
      9 O_08         -4.2265   22.4198  -31.6685 o0      1  lig      -0.467100
     10 N_09         -4.5133   24.4119  -30.6476 n0      1  lig      -0.388000
     11 C_0a         -5.2869   25.1112  -31.5800 ci      1  lig       0.195300
     12 C_0b         -5.9620   24.5479  -32.6807 cj      1  lig      -0.158300
     13 C_0c         -6.7806   25.3609  -33.4589 ck      1  lig       0.128400
     14 N_0d         -6.9234   26.6542  -33.1828 ng      1  lig      -0.556000
     15 C_0e         -6.2984   27.2317  -32.1577 cm      1  lig       0.542900
     16 C_0f         -5.5070   26.4571  -31.3066 cn      1  lig      -0.376700
     17 N_0g         -6.5391   28.5828  -31.8838 nr      1  lig      -0.454000
     18 C_0h         -5.7134   29.4445  -31.2331 co      1  lig       0.609600
     19 O_0i         -4.6156   29.1218  -30.8098 o1      1  lig      -0.536400
     20 C_0j         -6.2319   30.8471  -31.0310 cq      1  lig      -0.212400
     21 Cl0k         -1.1124   24.0506  -30.3318 a1      1  lig      -0.064900
     22 H_0l         -6.7611   31.2474  -31.8901 h0      1  lig       0.080200
     23 H_0m         -1.4436   21.1321  -26.4786 h6      1  lig       0.160900
     24 H_0n         -0.2591   22.6635  -28.0157 h7      1  lig       0.142700
     25 H_0o         -3.8111   20.5610  -26.8909 h8      1  lig       0.143800
     26 H_0p         -4.3168   24.9848  -29.8393 h9      1  lig       0.285800
     27 H_0q         -5.8400   23.4993  -32.9094 hb      1  lig       0.128200
     28 H_0r         -7.3119   24.9439  -34.3018 hd      1  lig       0.112700
     29 H_0s         -5.0645   26.9093  -30.4313 he      1  lig       0.192900
     30 H_0t         -7.4045   29.0126  -32.1802 hf      1  lig       0.268600
     31 H_0u         -6.8876   30.8681  -30.1605 hg      1  lig       0.080200
     32 H_0v         -5.4617   32.7685  -30.5367 hh      1  lig       0.115600
     33 C_0w         -5.1449   31.7586  -30.6906 cr      1  lig      -0.048200
     34 C_0x         -4.0146   31.2150  -29.8569 cs      1  lig      -0.230400
     35 C_0y         -3.7999   31.5051  -31.3190 ct      1  lig      -0.320800
     36 H_0z         -3.5458   31.9321  -29.1428 hi      1  lig       0.119200
     37 H_10         -4.0876   30.1375  -29.5784 hj      1  lig       0.119200
     38 H_11         -3.1919   32.4103  -31.5532 hk      1  lig       0.136900
     39 H_12         -3.7337   30.6157  -31.9888 hl      1  lig       0.136900
@<TRIPOS>BOND
     1     1     2    2
     2     1     6    1
     3     1    23    1
     4     2     3    1
     5     2    24    1
     6     3     4    2
     7     3    21    1
     8     4     5    1
     9     4     8    1
    10     5     6    2
    11     5     7    1
    12     6    25    1
    13     8     9    2
    14     8    10    1
    15    10    11    1
    16    10    26    1
    17    11    12    2
    18    11    16    1
    19    12    13    1
    20    12    27    1
    21    13    14    2
    22    13    28    1
    23    14    15    1
    24    15    16    2
    25    15    17    1
    26    16    29    1
    27    17    18    1
    28    17    30    1
    29    18    19    2
    30    18    20    1
    31    20    22    1
    32    20    31    1
    33    20    33    1
    34    32    33    1
    35    33    34    1
    36    33    35    1
    37    34    35    1
    38    34    36    1
    39    34    37    1
    40    35    38    1
    41    35    39    1
