@<TRIPOS>MOLECULE
lig
  35   36 0 0 0
SMALL
NO_CHARGES


@<TRIPOS>ATOM
      1 C_00         -1.9612   21.5502  -27.3300 c4      1  lig      -0.148800
      2 C_01         -1.2942   22.4120  -28.1957 c5      1  lig      -0.077300
      3 C_02         -1.9550   22.9520  -29.2938 c6      1  lig      -0.071100
      4 C_03         -3.2998   22.6223  -29.5426 c7      1  lig       0.147900
      5 C_04         -3.9689   21.7588  -28.6534 c8      1  lig      -0.058800
      6 C_05         -3.2917   21.2292  -27.5624 c9      1  lig      -0.086500
      7 Cl06         -5.6403   21.3533  -28.9190 a0      1  lig      -0.068100
      8 C_07         -4.0401   23.1522  -30.7110 cb      1  lig       0.449700
      9 O_08         -4.2265   22.4198  -31.6685 o0      1  lig      -0.467900
     10 N_09         -4.5133   24.4119  -30.6476 n0      1  lig      -0.316000
     11 C_0a         -5.2869   25.1112  -31.5800 ci      1  lig       0.178600
     12 C_0b         -5.9620   24.5479  -32.6807 cj      1  lig      -0.127000
     13 C_0c         -6.7806   25.3609  -33.4589 ck      1  lig       0.064500
     14 N_0d         -6.9234   26.6542  -33.1828 ng      1  lig      -0.546100
     15 C_0e         -6.2984   27.2317  -32.1577 cm      1  lig       0.651400
     16 C_0f         -5.5070   26.4571  -31.3066 cn      1  lig      -0.468400
     17 N_0g         -6.5391   28.5828  -31.8838 nr      1  lig      -0.572200
     18 C_0h         -5.7134   29.4445  -31.2331 co      1  lig       0.625800
     19 O_0i         -4.6156   29.1218  -30.8098 o1      1  lig      -0.569300
     20 C_0j         -6.2319   30.8471  -31.0310 cq      1  lig       0.039800
     21 Cl0k         -1.1124   24.0506  -30.3318 a1      1  lig      -0.064000
     22 H_0l         -6.7611   31.2474  -31.8901 h0      1  lig       0.018000
     23 H_0m         -1.4436   21.1321  -26.4786 h6      1  lig       0.160400
     24 H_0n         -0.2591   22.6635  -28.0157 h7      1  lig       0.143800
     25 H_0o         -3.8111   20.5610  -26.8909 h8      1  lig       0.146400
     26 H_0p         -4.3168   24.9848  -29.8393 h9      1  lig       0.261000
     27 H_0q         -5.8400   23.4993  -32.9094 hb      1  lig       0.123800
     28 H_0r         -7.3119   24.9439  -34.3018 hd      1  lig       0.133600
     29 H_0s         -5.0645   26.9093  -30.4313 he      1  lig       0.227900
     30 H_0t         -7.4045   29.0126  -32.1802 hf      1  lig       0.269000
     31 C_0u         -5.0894   31.7546  -30.6833 cr      1  lig      -0.126700
     32 H_0v         -6.8876   30.8681  -30.1605 hg      1  lig       0.018000
     33 H_0w         -5.4617   32.7685  -30.5367 hh      1  lig       0.036200
     34 H_0x         -4.6143   31.4065  -29.7661 hi      1  lig       0.036200
     35 H_0y         -4.3607   31.7493  -31.4939 hj      1  lig       0.036200
@<TRIPOS>BOND
     1     1     2    2
     2     1     6    1
     3     1    23    1
     4     2     3    1
     5     2    24    1
     6     3     4    2
     7     3    21    1
     8     4     5    1
     9     4     8    1
    10     5     6    2
    11     5     7    1
    12     6    25    1
    13     8     9    2
    14     8    10    1
    15    10    11    1
    16    10    26    1
    17    11    12    2
    18    11    16    1
    19    12    13    1
    20    12    27    1
    21    13    14    2
    22    13    28    1
    23    14    15    1
    24    15    16    2
    25    15    17    1
    26    16    29    1
    27    17    18    1
    28    17    30    1
    29    18    19    2
    30    18    20    1
    31    20    22    1
    32    20    31    1
    33    20    32    1
    34    31    33    1
    35    31    34    1
    36    31    35    1
