@<TRIPOS>MOLECULE
lig
  39   41 0 0 0
SMALL
NO_CHARGES


@<TRIPOS>ATOM
      1 C_00         -1.9612   21.5502  -27.3300 c4      1  lig      -0.148400
      2 C_01         -1.2942   22.4120  -28.1957 c5      1  lig      -0.078000
      3 C_02         -1.9550   22.9520  -29.2938 c6      1  lig      -0.060400
      4 C_03         -3.2998   22.6223  -29.5426 c7      1  lig       0.124400
      5 C_04         -3.9689   21.7588  -28.6534 c8      1  lig      -0.060800
      6 C_05         -3.2917   21.2292  -27.5624 c9      1  lig      -0.081800
      7 Cl06         -5.6403   21.3533  -28.9190 a0      1  lig      -0.069500
      8 C_07         -4.0401   23.1522  -30.7110 cb      1  lig       0.514100
      9 O_08         -4.2265   22.4198  -31.6685 o0      1  lig      -0.487000
     10 N_09         -4.5133   24.4119  -30.6476 n0      1  lig      -0.346500
     11 C_0a         -5.2869   25.1112  -31.5800 ci      1  lig       0.159900
     12 C_0b         -5.9620   24.5479  -32.6807 cj      1  lig      -0.155000
     13 C_0c         -6.7806   25.3609  -33.4589 ck      1  lig       0.115100
     14 N_0d         -6.9234   26.6542  -33.1828 ng      1  lig      -0.539200
     15 C_0e         -6.2984   27.2317  -32.1577 cm      1  lig       0.542600
     16 C_0f         -5.5070   26.4571  -31.3066 cn      1  lig      -0.380900
     17 N_0g         -6.5391   28.5828  -31.8838 nr      1  lig      -0.442100
     18 C_0h         -5.7134   29.4445  -31.2331 co      1  lig       0.563800
     19 O_0i         -4.6156   29.1218  -30.8098 o1      1  lig      -0.551200
     20 Cl0j         -1.1124   24.0506  -30.3318 a1      1  lig      -0.070500
     21 H_0k         -1.4436   21.1321  -26.4786 h0      1  lig       0.159100
     22 H_0l         -0.2591   22.6635  -28.0157 h6      1  lig       0.143300
     23 H_0m         -3.8111   20.5610  -26.8909 h7      1  lig       0.145000
     24 H_0n         -4.3168   24.9848  -29.8393 h8      1  lig       0.264900
     25 H_0o         -5.8400   23.4993  -32.9094 h9      1  lig       0.132300
     26 H_0p         -7.3119   24.9439  -34.3018 hb      1  lig       0.116000
     27 H_0q         -5.0645   26.9093  -30.4313 hd      1  lig       0.207700
     28 H_0r         -7.4045   29.0126  -32.1802 he      1  lig       0.252900
     29 C_0s         -7.0259   33.5314  -30.6164 cq      1  lig      -0.100100
     30 C_0t         -7.2461   32.9020  -31.8526 cr      1  lig      -0.165600
     31 C_0u         -6.8210   31.5783  -32.0524 cs      1  lig      -0.112300
     32 C_0v         -6.1757   30.8841  -31.0159 ct      1  lig      -0.029300
     33 C_0w         -5.9555   31.5134  -29.7797 cw      1  lig      -0.102400
     34 C_0x         -6.3806   32.8371  -29.5799 cA      1  lig      -0.158300
     35 H_0y         -7.3599   34.5712  -30.4595 hf      1  lig       0.138100
     36 H_0z         -7.7531   33.4475  -32.6669 hg      1  lig       0.145800
     37 H_10         -6.9940   31.0839  -33.0235 hh      1  lig       0.126600
     38 H_11         -5.4486   30.9679  -28.9655 hi      1  lig       0.145100
     39 H_12         -6.2076   33.3315  -28.6088 hj      1  lig       0.142600
@<TRIPOS>BOND
     1     1     2    2
     2     1     6    1
     3     1    21    1
     4     2     3    1
     5     2    22    1
     6     3     4    2
     7     3    20    1
     8     4     5    1
     9     4     8    1
    10     5     6    2
    11     5     7    1
    12     6    23    1
    13     8     9    2
    14     8    10    1
    15    10    11    1
    16    10    24    1
    17    11    12    2
    18    11    16    1
    19    12    13    1
    20    12    25    1
    21    13    14    2
    22    13    26    1
    23    14    15    1
    24    15    16    2
    25    15    17    1
    26    16    27    1
    27    17    18    1
    28    17    28    1
    29    18    19    2
    30    18    32    1
    31    29    30    2
    32    29    34    1
    33    29    35    1
    34    30    31    1
    35    30    36    1
    36    31    32    2
    37    31    37    1
    38    32    33    1
    39    33    34    2
    40    33    38    1
    41    34    39    1
