@<TRIPOS>MOLECULE
lig
  42   44 0 0 0
SMALL
NO_CHARGES


@<TRIPOS>ATOM
      1 C_00         -1.9612   21.5502  -27.3300 c4      1  lig      -0.150300
      2 C_01         -1.2942   22.4120  -28.1957 c5      1  lig      -0.080600
      3 C_02         -1.9550   22.9520  -29.2938 c6      1  lig      -0.055300
      4 C_03         -3.2998   22.6223  -29.5426 c7      1  lig       0.123000
      5 C_04         -3.9689   21.7588  -28.6534 c8      1  lig      -0.057900
      6 C_05         -3.2917   21.2292  -27.5624 c9      1  lig      -0.082000
      7 Cl06         -5.6403   21.3533  -28.9190 a0      1  lig      -0.066400
      8 C_07         -4.0401   23.1522  -30.7110 cb      1  lig       0.473800
      9 O_08         -4.2265   22.4198  -31.6685 o0      1  lig      -0.470700
     10 N_09         -4.5133   24.4119  -30.6476 n0      1  lig      -0.378900
     11 C_0a         -5.2869   25.1112  -31.5800 ci      1  lig       0.187300
     12 C_0b         -5.9620   24.5479  -32.6807 cj      1  lig      -0.149800
     13 C_0c         -6.7806   25.3609  -33.4589 ck      1  lig       0.088200
     14 N_0d         -6.9234   26.6542  -33.1828 ng      1  lig      -0.533300
     15 C_0e         -6.2984   27.2317  -32.1577 cm      1  lig       0.532000
     16 C_0f         -5.5070   26.4571  -31.3066 cn      1  lig      -0.367800
     17 N_0g         -6.5391   28.5828  -31.8838 nr      1  lig      -0.414300
     18 C_0h         -5.7134   29.4445  -31.2331 co      1  lig       0.430400
     19 O_0i         -4.6156   29.1218  -30.8098 o1      1  lig      -0.524700
     20 Cl0j         -1.1124   24.0506  -30.3318 a1      1  lig      -0.065600
     21 H_0k         -1.4436   21.1321  -26.4786 h0      1  lig       0.162800
     22 H_0l         -0.2591   22.6635  -28.0157 h6      1  lig       0.145000
     23 H_0m         -3.8111   20.5610  -26.8909 h7      1  lig       0.147300
     24 H_0n         -4.3168   24.9848  -29.8393 h8      1  lig       0.284100
     25 H_0o         -5.8400   23.4993  -32.9094 h9      1  lig       0.130600
     26 H_0p         -7.3119   24.9439  -34.3018 hb      1  lig       0.127800
     27 H_0q         -5.0645   26.9093  -30.4313 hd      1  lig       0.197900
     28 H_0r         -7.4045   29.0126  -32.1802 he      1  lig       0.242900
     29 H_0s         -7.2836   30.9672  -31.1542 hf      1  lig       0.050900
     30 C_0t         -6.1757   30.8841  -31.0159 cq      1  lig       0.037500
     31 C_0u         -5.7758   31.3307  -29.6033 cr      1  lig      -0.114200
     32 C_0v         -4.4024   31.9768  -29.7974 cs      1  lig      -0.016600
     33 C_0w         -4.5846   32.7530  -31.1037 ct      1  lig       0.003600
     34 C_0x         -5.4197   31.8126  -31.9835 cw      1  lig      -0.092700
     35 H_0y         -5.7582   30.4902  -28.8683 hg      1  lig       0.053100
     36 H_0z         -6.4960   32.1001  -29.2320 hh      1  lig       0.053100
     37 H_10         -4.1038   32.6292  -28.9417 hi      1  lig       0.020000
     38 H_11         -3.6249   31.1857  -29.9296 hj      1  lig       0.020000
     39 H_12         -5.1602   33.6882  -30.8978 hk      1  lig       0.001900
     40 H_13         -3.6133   33.0421  -31.5729 hl      1  lig       0.001900
     41 H_14         -4.7457   31.2109  -32.6405 hm      1  lig       0.053000
     42 H_15         -6.1117   32.3846  -32.6475 hq      1  lig       0.053000
@<TRIPOS>BOND
     1     1     2    2
     2     1     6    1
     3     1    21    1
     4     2     3    1
     5     2    22    1
     6     3     4    2
     7     3    20    1
     8     4     5    1
     9     4     8    1
    10     5     6    2
    11     5     7    1
    12     6    23    1
    13     8     9    2
    14     8    10    1
    15    10    11    1
    16    10    24    1
    17    11    12    2
    18    11    16    1
    19    12    13    1
    20    12    25    1
    21    13    14    2
    22    13    26    1
    23    14    15    1
    24    15    16    2
    25    15    17    1
    26    16    27    1
    27    17    18    1
    28    17    28    1
    29    18    19    2
    30    18    30    1
    31    29    30    1
    32    30    31    1
    33    30    34    1
    34    31    32    1
    35    31    35    1
    36    31    36    1
    37    32    33    1
    38    32    37    1
    39    32    38    1
    40    33    34    1
    41    33    39    1
    42    33    40    1
    43    34    41    1
    44    34    42    1
