@<TRIPOS>MOLECULE
lig
  38   39 0 0 0
SMALL
NO_CHARGES


@<TRIPOS>ATOM
      1 C_00         -1.9612   21.5502  -27.3300 c4      1  lig      -0.152900
      2 C_01         -1.2942   22.4120  -28.1957 c5      1  lig      -0.076800
      3 C_02         -1.9550   22.9520  -29.2938 c6      1  lig      -0.056900
      4 C_03         -3.2998   22.6223  -29.5426 c7      1  lig       0.117200
      5 C_04         -3.9689   21.7588  -28.6534 c8      1  lig      -0.054600
      6 C_05         -3.2917   21.2292  -27.5624 c9      1  lig      -0.080000
      7 Cl06         -5.6403   21.3533  -28.9190 a0      1  lig      -0.068800
      8 C_07         -4.0401   23.1522  -30.7110 cb      1  lig       0.495800
      9 O_08         -4.2265   22.4198  -31.6685 o0      1  lig      -0.475900
     10 N_09         -4.5133   24.4119  -30.6476 n0      1  lig      -0.369000
     11 C_0a         -5.2869   25.1112  -31.5800 ci      1  lig       0.183900
     12 C_0b         -5.9620   24.5479  -32.6807 cj      1  lig      -0.159500
     13 C_0c         -6.7806   25.3609  -33.4589 ck      1  lig       0.117200
     14 N_0d         -6.9234   26.6542  -33.1828 ng      1  lig      -0.534800
     15 C_0e         -6.2984   27.2317  -32.1577 cm      1  lig       0.528400
     16 C_0f         -5.5070   26.4571  -31.3066 cn      1  lig      -0.378000
     17 N_0g         -6.5391   28.5828  -31.8838 nr      1  lig      -0.445800
     18 C_0h         -5.7134   29.4445  -31.2331 co      1  lig       0.581500
     19 O_0i         -4.6156   29.1218  -30.8098 o1      1  lig      -0.556000
     20 C_0j         -6.2319   30.8471  -31.0310 cq      1  lig       0.039400
     21 Cl0k         -1.1124   24.0506  -30.3318 a1      1  lig      -0.067300
     22 C_0l         -6.9632   31.4003  -32.2181 cr      1  lig      -0.288900
     23 H_0m         -1.4436   21.1321  -26.4786 h0      1  lig       0.161100
     24 H_0n         -0.2591   22.6635  -28.0157 h6      1  lig       0.142500
     25 H_0o         -3.8111   20.5610  -26.8909 h7      1  lig       0.143900
     26 H_0p         -4.3168   24.9848  -29.8393 h8      1  lig       0.277900
     27 H_0q         -5.8400   23.4993  -32.9094 h9      1  lig       0.131800
     28 H_0r         -7.3119   24.9439  -34.3018 hb      1  lig       0.114100
     29 H_0s         -5.0645   26.9093  -30.4313 hd      1  lig       0.196200
     30 H_0t         -7.4045   29.0126  -32.1802 he      1  lig       0.241100
     31 C_0u         -5.0894   31.7546  -30.6833 cs      1  lig      -0.263400
     32 H_0v         -6.8876   30.8681  -30.1605 hf      1  lig       0.052000
     33 H_0w         -5.4617   32.7685  -30.5367 hg      1  lig       0.080900
     34 H_0x         -4.6143   31.4065  -29.7661 hh      1  lig       0.080900
     35 H_0y         -4.3607   31.7493  -31.4939 hi      1  lig       0.080900
     36 H_0z         -7.3052   32.4111  -31.9961 hj      1  lig       0.087300
     37 H_10         -6.2945   31.4242  -33.0786 hk      1  lig       0.087300
     38 H_11         -7.8219   30.7680  -32.4435 hl      1  lig       0.087300
@<TRIPOS>BOND
     1     1     2    2
     2     1     6    1
     3     1    23    1
     4     2     3    1
     5     2    24    1
     6     3     4    2
     7     3    21    1
     8     4     5    1
     9     4     8    1
    10     5     6    2
    11     5     7    1
    12     6    25    1
    13     8     9    2
    14     8    10    1
    15    10    11    1
    16    10    26    1
    17    11    12    2
    18    11    16    1
    19    12    13    1
    20    12    27    1
    21    13    14    2
    22    13    28    1
    23    14    15    1
    24    15    16    2
    25    15    17    1
    26    16    29    1
    27    17    18    1
    28    17    30    1
    29    18    19    2
    30    18    20    1
    31    20    22    1
    32    20    31    1
    33    20    32    1
    34    22    36    1
    35    22    37    1
    36    22    38    1
    37    31    33    1
    38    31    34    1
    39    31    35    1
