@<TRIPOS>MOLECULE
lig
  37   38 0 0 0
SMALL
NO_CHARGES


@<TRIPOS>ATOM
      1 C_00         -1.9612   21.5502  -27.3300 c4      1  lig      -0.148700
      2 C_01         -1.2942   22.4120  -28.1957 c5      1  lig      -0.088200
      3 C_02         -1.9550   22.9520  -29.2938 c6      1  lig      -0.055200
      4 C_03         -3.2998   22.6223  -29.5426 c7      1  lig       0.144700
      5 C_04         -3.9689   21.7588  -28.6534 c8      1  lig      -0.063700
      6 C_05         -3.2917   21.2292  -27.5624 c9      1  lig      -0.080500
      7 Cl06         -5.6403   21.3533  -28.9190 a0      1  lig      -0.062400
      8 C_07         -4.0401   23.1522  -30.7110 cb      1  lig       0.422100
      9 O_08         -4.2265   22.4198  -31.6685 o0      1  lig      -0.450400
     10 N_09         -4.5133   24.4119  -30.6476 n0      1  lig      -0.356100
     11 C_0a         -5.2869   25.1112  -31.5800 ci      1  lig       0.196500
     12 C_0b         -5.9620   24.5479  -32.6807 cj      1  lig      -0.150100
     13 C_0c         -6.7806   25.3609  -33.4589 ck      1  lig       0.099600
     14 N_0d         -6.9234   26.6542  -33.1828 ng      1  lig      -0.553900
     15 C_0e         -6.2984   27.2317  -32.1577 cm      1  lig       0.647000
     16 C_0f         -5.5070   26.4571  -31.3066 cn      1  lig      -0.431300
     17 N_0g         -6.5391   28.5828  -31.8838 nr      1  lig      -0.612800
     18 C_0h         -5.7134   29.4445  -31.2331 co      1  lig       0.808800
     19 O_0i         -4.6156   29.1218  -30.8098 o1      1  lig      -0.567800
     20 Cl0j         -1.1124   24.0506  -30.3318 a1      1  lig      -0.064400
     21 H_0k         -1.4436   21.1321  -26.4786 h0      1  lig       0.161200
     22 H_0l         -0.2591   22.6635  -28.0157 h6      1  lig       0.144600
     23 H_0m         -3.8111   20.5610  -26.8909 h7      1  lig       0.143200
     24 H_0n         -4.3168   24.9848  -29.8393 h8      1  lig       0.288500
     25 H_0o         -5.8400   23.4993  -32.9094 h9      1  lig       0.125000
     26 H_0p         -7.3119   24.9439  -34.3018 hb      1  lig       0.118300
     27 H_0q         -5.0645   26.9093  -30.4313 hd      1  lig       0.188300
     28 H_0r         -7.4045   29.0126  -32.1802 he      1  lig       0.281800
     29 C_0s         -5.1871   31.8542  -30.6778 cq      1  lig       0.134000
     30 H_0t         -5.5878   32.8578  -30.8199 hf      1  lig       0.044100
     31 H_0u         -4.9066   31.7200  -29.6331 hg      1  lig       0.044100
     32 C_0v         -3.9781   31.6716  -31.5468 cr      1  lig      -0.048300
     33 N_0w         -6.1554   30.8245  -31.0242 nw      1  lig      -0.712700
     34 H_0x         -7.1324   31.0619  -31.1205 hh      1  lig       0.398000
     35 H_0y         -3.5766   30.6681  -31.4054 hi      1  lig       0.018900
     36 H_0z         -4.2573   31.8068  -32.5917 hj      1  lig       0.018900
     37 H_10         -3.2207   32.4070  -31.2756 hk      1  lig       0.018900
@<TRIPOS>BOND
     1     1     2    2
     2     1     6    1
     3     1    21    1
     4     2     3    1
     5     2    22    1
     6     3     4    2
     7     3    20    1
     8     4     5    1
     9     4     8    1
    10     5     6    2
    11     5     7    1
    12     6    23    1
    13     8     9    2
    14     8    10    1
    15    10    11    1
    16    10    24    1
    17    11    12    2
    18    11    16    1
    19    12    13    1
    20    12    25    1
    21    13    14    2
    22    13    26    1
    23    14    15    1
    24    15    16    2
    25    15    17    1
    26    16    27    1
    27    17    18    1
    28    17    28    1
    29    18    19    2
    30    18    33    1
    31    29    30    1
    32    29    31    1
    33    29    32    1
    34    29    33    1
    35    32    35    1
    36    32    36    1
    37    32    37    1
    38    33    34    1
