@<TRIPOS>MOLECULE
lig
  54   58 0 0 0
SMALL
NO_CHARGES


@<TRIPOS>ATOM
      1 C_00         29.6783    8.6041   -6.3399 c4      1  lig       0.071375
      2 N_01         28.8994    8.2121   -5.2835 n0      1  lig      -0.229028
      3 C_02         28.6584    6.9663   -5.0517 c5      1  lig       0.182396
      4 N_03         29.1860    6.0319   -5.9026 ng      1  lig      -0.133920
      5 C_04         29.9278    6.2743   -7.0123 c6      1  lig       0.340865
      6 C_05         30.1943    7.7045   -7.2471 c7      1  lig       0.044290
      7 N_06         29.8964    9.9711   -6.4138 nr      1  lig      -0.202170
      8 N_07         27.8571    6.5469   -3.9387 nw      1  lig      -0.168993
      9 O_08         30.2956    5.3237   -7.6944 o0      1  lig      -0.485737
     10 C_09         31.0114    8.1123   -8.4254 c8      1  lig      -0.007427
     11 C_0a         29.0915   11.0904   -5.9215 c9      1  lig       0.158486
     12 C_0b         29.0599   11.1124   -4.3723 cb      1  lig      -0.093006
     13 N_0c         28.3768   12.3968   -3.8684 nA      1  lig      -0.076823
     14 C_0d         29.0173   13.6859   -4.4114 ci      1  lig       0.007854
     15 C_0e         28.9992   13.6446   -5.9484 cj      1  lig      -0.081387
     16 C_0f         29.7056   12.3893   -6.4867 ck      1  lig      -0.062206
     17 C_0g         26.8966    7.4509   -3.2893 cm      1  lig      -0.201661
     18 C_0h         26.8139    7.1796   -1.7766 cn      1  lig       0.213652
     19 O_0i         26.5500    5.8049   -1.5183 o1      1  lig      -0.379146
     20 C_0j         27.5022    4.9252   -2.1061 co      1  lig       0.129051
     21 C_0k         27.5813    5.1371   -3.6310 cq      1  lig      -0.096770
     22 S_0l         32.2476    7.0921   -9.1710 s0      1  lig      -0.006058
     23 C_0m         32.7016    8.4440  -10.1948 cr      1  lig       0.081583
     24 C_0n         31.8319    9.5261   -9.9325 cs      1  lig       0.085344
     25 N_0o         30.9022    9.2969   -8.9735 nB      1  lig      -0.171433
     26 C_0p         33.7437    8.5701  -11.1190 ct      1  lig      -0.206125
     27 C_0q         33.9070    9.7937  -11.7661 cw      1  lig      -0.184364
     28 C_0r         33.0501   10.8611  -11.5195 cA      1  lig      -0.110403
     29 C_0s         31.9980   10.7400  -10.6138 cB      1  lig      -0.210785
     30 H_0t         29.0013    5.0594   -5.7116 h0      1  lig       0.247019
     31 H_0u         30.3722   10.2393   -7.2643 h6      1  lig       0.056576
     32 H_0v         28.0822   10.9725   -6.3190 h7      1  lig       0.010405
     33 H_0w         30.0525   11.0996   -3.9253 h8      1  lig       0.094219
     34 H_0x         28.4660   10.3146   -3.9307 h9      1  lig       0.094219
     35 H_0y         27.4008   12.3696   -4.1284 hb      1  lig       0.246859
     36 H_0z         30.0280   13.7235   -4.0010 hd      1  lig       0.094963
     37 H_10         28.4331   14.5119   -4.0037 he      1  lig       0.094963
     38 H_11         29.4847   14.5385   -6.3428 hf      1  lig       0.062702
     39 H_12         27.9700   13.6775   -6.3084 hg      1  lig       0.062702
     40 H_13         29.6538   12.3850   -7.5773 hh      1  lig       0.085330
     41 H_14         30.7661   12.4466   -6.2304 hi      1  lig       0.085330
     42 H_15         25.9133    7.3251   -3.7444 hj      1  lig       0.122276
     43 H_16         27.1623    8.4974   -3.4370 hk      1  lig       0.122276
     44 H_17         26.0095    7.7765   -1.3482 hl      1  lig       0.029071
     45 H_18         27.7306    7.4947   -1.2749 hm      1  lig       0.029071
     46 H_19         27.2154    3.8963   -1.8874 hq      1  lig       0.055770
     47 H_1a         28.4811    5.0750   -1.6482 hr      1  lig       0.055770
     48 H_1b         28.3586    4.4824   -4.0251 ht      1  lig       0.122770
     49 H_1c         26.6482    4.8290   -4.1043 hu      1  lig       0.122770
     50 H_1d         34.4191    7.7499  -11.3134 hv      1  lig       0.203889
     51 H_1e         34.7158    9.9219  -12.4692 hy      1  lig       0.158912
     52 H_1f         33.2127   11.7988  -12.0289 hz      1  lig       0.146409
     53 H_1g         31.3481   11.5804  -10.4193 hA      1  lig       0.141416
     54 H_1h         28.4096   12.4060   -2.8545 hB      1  lig       0.246859
@<TRIPOS>BOND
     1     1     2    1
     2     1     6    2
     3     1     7    1
     4     2     3    2
     5     3     4    1
     6     3     8    1
     7     4     5    1
     8     4    30    1
     9     5     6    1
    10     5     9    2
    11     6    10    1
    12     7    11    1
    13     7    31    1
    14     8    17    1
    15     8    21    1
    16    10    22    1
    17    10    25    2
    18    11    12    1
    19    11    16    1
    20    11    32    1
    21    12    13    1
    22    12    33    1
    23    12    34    1
    24    13    14    1
    25    13    35    1
    26    13    54    1
    27    14    15    1
    28    14    36    1
    29    14    37    1
    30    15    16    1
    31    15    38    1
    32    15    39    1
    33    16    40    1
    34    16    41    1
    35    17    18    1
    36    17    42    1
    37    17    43    1
    38    18    19    1
    39    18    44    1
    40    18    45    1
    41    19    20    1
    42    20    21    1
    43    20    46    1
    44    20    47    1
    45    21    48    1
    46    21    49    1
    47    22    23    1
    48    23    24    2
    49    23    26    1
    50    24    25    1
    51    24    29    1
    52    26    27    2
    53    26    50    1
    54    27    28    1
    55    27    51    1
    56    28    29    2
    57    28    52    1
    58    29    53    1
