@<TRIPOS>MOLECULE
lig
  52   56 0 0 0
SMALL
NO_CHARGES


@<TRIPOS>ATOM
      1 C_00         29.6783    8.6041   -6.3399 c4      1  lig       0.058357
      2 N_01         28.8994    8.2121   -5.2835 n0      1  lig      -0.222216
      3 C_02         28.6584    6.9663   -5.0517 c5      1  lig       0.185078
      4 N_03         29.1860    6.0319   -5.9026 ng      1  lig      -0.150306
      5 C_04         29.9278    6.2743   -7.0123 c6      1  lig       0.343794
      6 C_05         30.1943    7.7045   -7.2471 c7      1  lig       0.048385
      7 N_06         29.8964    9.9711   -6.4138 nr      1  lig      -0.179815
      8 N_07         27.8571    6.5469   -3.9387 nw      1  lig      -0.161586
      9 O_08         30.2956    5.3237   -7.6944 o0      1  lig      -0.514654
     10 C_09         31.0114    8.1123   -8.4254 c8      1  lig       0.001751
     11 C_0a         29.0915   11.0904   -5.9215 c9      1  lig       0.137891
     12 C_0b         29.0599   11.1124   -4.3723 cb      1  lig       0.008132
     13 N_0c         28.3768   12.3968   -3.8684 nA      1  lig      -0.522393
     14 C_0d         28.9992   13.6446   -5.9484 ci      1  lig       0.002793
     15 C_0e         29.7056   12.3893   -6.4867 cj      1  lig      -0.053663
     16 C_0f         26.8966    7.4509   -3.2893 ck      1  lig      -0.090780
     17 C_0g         26.8139    7.1796   -1.7766 cm      1  lig       0.143761
     18 O_0h         26.5500    5.8049   -1.5183 o1      1  lig      -0.395831
     19 C_0i         27.5022    4.9252   -2.1061 cn      1  lig       0.128660
     20 C_0j         27.5813    5.1371   -3.6310 co      1  lig      -0.090556
     21 S_0k         32.2476    7.0921   -9.1710 s0      1  lig      -0.041764
     22 C_0l         32.7016    8.4440  -10.1948 cq      1  lig       0.078382
     23 C_0m         31.8319    9.5261   -9.9325 cr      1  lig       0.107584
     24 N_0n         30.9022    9.2969   -8.9735 nB      1  lig      -0.188686
     25 C_0o         33.7437    8.5701  -11.1190 cs      1  lig      -0.209341
     26 C_0p         33.9070    9.7937  -11.7661 ct      1  lig      -0.200263
     27 C_0q         33.0501   10.8611  -11.5195 cw      1  lig      -0.121206
     28 C_0r         31.9980   10.7400  -10.6138 cA      1  lig      -0.204037
     29 H_0s         29.0013    5.0594   -5.7116 h0      1  lig       0.240480
     30 H_0t         30.3722   10.2393   -7.2643 h6      1  lig       0.068455
     31 H_0u         28.0822   10.9725   -6.3190 h7      1  lig       0.010022
     32 H_0v         30.0525   11.0996   -3.9253 h8      1  lig       0.056888
     33 H_0w         28.4660   10.3146   -3.9307 h9      1  lig       0.056888
     34 H_0x         29.4847   14.5385   -6.3428 hb      1  lig       0.029164
     35 H_0y         27.9700   13.6775   -6.3084 hd      1  lig       0.029164
     36 H_0z         29.6538   12.3850   -7.5773 he      1  lig       0.051042
     37 H_10         30.7661   12.4466   -6.2304 hf      1  lig       0.051042
     38 H_11         25.9133    7.3251   -3.7444 hg      1  lig       0.092676
     39 H_12         27.1623    8.4974   -3.4370 hh      1  lig       0.092676
     40 H_13         26.0095    7.7765   -1.3482 hi      1  lig       0.050654
     41 H_14         27.7306    7.4947   -1.2749 hj      1  lig       0.050654
     42 H_15         27.2154    3.8963   -1.8874 hk      1  lig       0.050136
     43 H_16         28.4811    5.0750   -1.6482 hl      1  lig       0.050136
     44 H_17         28.3586    4.4824   -4.0251 hm      1  lig       0.107212
     45 H_18         26.6482    4.8290   -4.1043 hq      1  lig       0.107212
     46 H_19         34.4191    7.7499  -11.3134 hr      1  lig       0.193536
     47 H_1a         34.7158    9.9219  -12.4692 ht      1  lig       0.150626
     48 H_1b         33.2127   11.7988  -12.0289 hu      1  lig       0.141131
     49 H_1c         31.3481   11.5804  -10.4193 hv      1  lig       0.141778
     50 C_1d         28.9892   13.6291   -4.4539 cB      1  lig       0.566500
     51 O_1e         29.4343   14.5285   -3.7813 o2      1  lig      -0.605814
     52 H_1f         27.6048   12.4747   -3.2219 hy      1  lig       0.320271
@<TRIPOS>BOND
     1     1     2    1
     2     1     6    2
     3     1     7    1
     4     2     3    2
     5     3     4    1
     6     3     8    1
     7     4     5    1
     8     4    29    1
     9     5     6    1
    10     5     9    2
    11     6    10    1
    12     7    11    1
    13     7    30    1
    14     8    16    1
    15     8    20    1
    16    10    21    1
    17    10    24    2
    18    11    12    1
    19    11    15    1
    20    11    31    1
    21    12    13    1
    22    12    32    1
    23    12    33    1
    24    13    50    1
    25    13    52    1
    26    14    15    1
    27    14    34    1
    28    14    35    1
    29    14    50    1
    30    15    36    1
    31    15    37    1
    32    16    17    1
    33    16    38    1
    34    16    39    1
    35    17    18    1
    36    17    40    1
    37    17    41    1
    38    18    19    1
    39    19    20    1
    40    19    42    1
    41    19    43    1
    42    20    44    1
    43    20    45    1
    44    21    22    1
    45    22    23    2
    46    22    25    1
    47    23    24    1
    48    23    28    1
    49    25    26    2
    50    25    46    1
    51    26    27    1
    52    26    47    1
    53    27    28    2
    54    27    48    1
    55    28    49    1
    56    50    51    2
