@<TRIPOS>MOLECULE
lig
  55   59 0 0 0
SMALL
NO_CHARGES


@<TRIPOS>ATOM
      1 O_00         30.2956    5.3237   -7.6944 o0      1  lig      -0.515284
      2 C_01         29.9278    6.2743   -7.0123 c4      1  lig       0.332284
      3 N_02         29.1860    6.0319   -5.9026 n0      1  lig      -0.130549
      4 C_03         28.6584    6.9663   -5.0517 c5      1  lig       0.098089
      5 N_04         27.8571    6.5469   -3.9387 ng      1  lig      -0.125679
      6 C_05         26.8966    7.4509   -3.2893 c6      1  lig      -0.126533
      7 C_06         26.8139    7.1796   -1.7766 c7      1  lig       0.170416
      8 O_07         26.5500    5.8049   -1.5183 o1      1  lig      -0.406702
      9 C_08         27.5022    4.9252   -2.1061 c8      1  lig       0.128378
     10 C_09         27.5813    5.1371   -3.6310 c9      1  lig      -0.116898
     11 N_0a         28.8994    8.2121   -5.2835 nr      1  lig      -0.140441
     12 C_0b         29.6783    8.6041   -6.3399 cb      1  lig       0.059390
     13 N_0c         29.8964    9.9711   -6.4138 nw      1  lig      -0.281895
     14 C_0d         29.0915   11.0904   -5.9215 ci      1  lig       0.262362
     15 C_0e         29.7548   12.4355   -6.3076 cj      1  lig      -0.033578
     16 C_0f         29.4314   13.5995   -5.3386 ck      1  lig      -0.061991
     17 C_0g         28.0624   13.4283   -4.6542 cm      1  lig      -0.041489
     18 C_0h         27.9665   12.1072   -3.8517 cn      1  lig       0.183125
     19 O_0i         26.6479   11.7008   -3.8254 o2      1  lig      -0.666672
     20 C_0j         28.8573   10.9673   -4.4044 co      1  lig      -0.066708
     21 C_0k         30.1943    7.7045   -7.2471 cq      1  lig       0.039288
     22 C_0l         31.0114    8.1123   -8.4254 cr      1  lig       0.026049
     23 N_0m         30.9022    9.2969   -8.9735 nA      1  lig      -0.230782
     24 C_0n         31.8319    9.5261   -9.9325 cs      1  lig       0.149365
     25 C_0o         31.9980   10.7400  -10.6138 ct      1  lig      -0.244951
     26 C_0p         33.0501   10.8611  -11.5195 cw      1  lig      -0.105110
     27 C_0q         33.9070    9.7937  -11.7661 cA      1  lig      -0.190098
     28 C_0r         33.7437    8.5701  -11.1190 cB      1  lig      -0.227353
     29 C_0s         32.7016    8.4440  -10.1948 cC      1  lig       0.090211
     30 S_0t         32.2476    7.0921   -9.1710 s0      1  lig      -0.056092
     31 H_0u         29.0013    5.0594   -5.7116 h0      1  lig       0.241952
     32 H_0v         25.9133    7.3251   -3.7444 h6      1  lig       0.107038
     33 H_0w         27.1623    8.4974   -3.4370 h7      1  lig       0.107038
     34 H_0x         26.0095    7.7765   -1.3482 h8      1  lig       0.041226
     35 H_0y         27.7306    7.4947   -1.2749 h9      1  lig       0.041226
     36 H_0z         27.2154    3.8963   -1.8874 hb      1  lig       0.050870
     37 H_10         28.4811    5.0750   -1.6482 hd      1  lig       0.050870
     38 H_11         28.3586    4.4824   -4.0251 he      1  lig       0.111112
     39 H_12         26.6482    4.8290   -4.1043 hf      1  lig       0.111112
     40 H_13         30.3722   10.2393   -7.2643 hg      1  lig       0.111436
     41 H_14         28.1274   11.0068   -6.4272 hh      1  lig      -0.016282
     42 H_15         30.8384   12.3135   -6.3581 hi      1  lig       0.028825
     43 H_16         29.4458   12.6996   -7.3206 hj      1  lig       0.028825
     44 H_17         30.2002   13.6472   -4.5648 hk      1  lig       0.020682
     45 H_18         29.4827   14.5535   -5.8661 hl      1  lig       0.020682
     46 H_19         27.8459   14.2790   -4.0057 hm      1  lig       0.044633
     47 H_1a         27.2883   13.4383   -5.4241 hq      1  lig       0.044633
     48 H_1b         28.2349   12.2864   -2.8090 hr      1  lig       0.020629
     49 H_1c         26.2372   11.6574   -2.9147 ht      1  lig       0.406223
     50 H_1d         28.4224    9.9970   -4.1584 hu      1  lig       0.015928
     51 H_1e         29.8266   10.9931   -3.9025 hv      1  lig       0.015928
     52 H_1f         31.3481   11.5804  -10.4193 hy      1  lig       0.155360
     53 H_1g         33.2127   11.7988  -12.0289 hz      1  lig       0.132408
     54 H_1h         34.7158    9.9219  -12.4692 hA      1  lig       0.143185
     55 H_1i         34.4191    7.7499  -11.3134 hB      1  lig       0.194309
@<TRIPOS>BOND
     1     1     2    2
     2     2    21    1
     3     2     3    1
     4     3     4    1
     5     3    31    1
     6     4     5    1
     7     4    11    2
     8     5    10    1
     9     5     6    1
    10     6     7    1
    11     6    32    1
    12     6    33    1
    13     7     8    1
    14     7    34    1
    15     7    35    1
    16     8     9    1
    17     9    10    1
    18     9    36    1
    19     9    37    1
    20    10    38    1
    21    10    39    1
    22    11    12    1
    23    12    13    1
    24    12    21    2
    25    13    14    1
    26    13    40    1
    27    14    20    1
    28    14    15    1
    29    14    41    1
    30    15    16    1
    31    15    42    1
    32    15    43    1
    33    16    17    1
    34    16    44    1
    35    16    45    1
    36    17    18    1
    37    17    46    1
    38    17    47    1
    39    18    19    1
    40    18    20    1
    41    18    48    1
    42    19    49    1
    43    20    50    1
    44    20    51    1
    45    21    22    1
    46    22    30    1
    47    22    23    2
    48    23    24    1
    49    24    29    2
    50    24    25    1
    51    25    26    2
    52    25    52    1
    53    26    27    1
    54    26    53    1
    55    27    28    2
    56    27    54    1
    57    28    29    1
    58    28    55    1
    59    29    30    1
