@<TRIPOS>MOLECULE
lig
  44   46 0 0 0
SMALL
NO_CHARGES


@<TRIPOS>ATOM
      1 S_00         44.5087   14.2799    0.4458 s0      1  lig      -0.146169
      2 C_01         44.6724   15.6521    1.5151 c4      1  lig       0.034839
      3 C_02         45.4942   15.3357    2.5929 c5      1  lig       0.137908
      4 C_03         45.9327   14.0054    2.5686 c6      1  lig      -0.061824
      5 C_04         45.5470   13.2994    1.4352 c7      1  lig      -0.048314
      6 C_05         43.9966   16.9101    1.1914 c8      1  lig       0.702480
      7 O_06         43.3921   16.9804    0.1004 o0      1  lig      -0.741396
      8 O_07         44.0754   17.8442    2.0228 o1      1  lig      -0.718812
      9 C_08         45.8873   11.9043    1.0226 c9      1  lig      -0.004478
     10 C_09         47.1912   11.4197    1.1894 cb      1  lig      -0.048261
     11 C_0a         47.5202   10.1013    0.8651 ci      1  lig       0.061760
     12 C_0b         46.5318    9.2669    0.3262 cj      1  lig      -0.035211
     13 C_0c         45.2354    9.7445    0.1362 ck      1  lig      -0.301323
     14 C_0d         44.9145   11.0540    0.4905 cm      1  lig      -0.069217
     15 Br0e         46.9337   13.2378    3.9786 a0      1  lig      -0.066401
     16 O_0f         45.7976   16.2054    3.6038 o2      1  lig      -0.335418
     17 C_0g         47.0769   16.8148    3.4399 cn      1  lig       0.006503
     18 C_0h         47.3906   17.6438    4.6904 co      1  lig       0.821491
     19 O_0i         48.5187   18.1810    4.7214 o3      1  lig      -0.851490
     20 O_0j         46.5366   17.7279    5.6063 o4      1  lig      -0.774652
     21 N_0k         48.8387    9.6745    1.1078 n0      1  lig      -0.669797
     22 C_0l         49.1257    8.2782    1.4384 cq      1  lig       0.167726
     23 C_0m         50.6645    8.1073    1.5183 cr      1  lig      -0.273659
     24 C_0n         51.0793    6.7381    2.0910 cs      1  lig       0.220792
     25 N_0o         50.3594    6.4580    3.3545 ng      1  lig      -0.729245
     26 C_0p         48.8823    6.5385    3.2997 ct      1  lig       0.198772
     27 C_0q         48.4391    7.9131    2.7808 cw      1  lig      -0.195185
     28 H_0r         47.9504   12.0732    1.5923 h0      1  lig       0.099164
     29 H_0s         46.7528    8.2473    0.0505 h6      1  lig       0.074542
     30 H_0t         44.4770    9.0946   -0.2738 h7      1  lig       0.149946
     31 H_0u         43.9017   11.4033    0.3584 h8      1  lig       0.122886
     32 H_0v         47.0819   17.4695    2.5660 h9      1  lig       0.057619
     33 H_0w         47.8642   16.0704    3.3056 hb      1  lig       0.057619
     34 H_0x         49.4094   10.3360    1.6168 hd      1  lig       0.345966
     35 H_0y         48.7423    7.6326    0.6480 he      1  lig       0.101943
     36 H_0z         51.0922    8.8778    2.1605 hf      1  lig       0.114527
     37 H_10         51.1124    8.2471    0.5337 hg      1  lig       0.114527
     38 H_11         52.1525    6.7104    2.2826 hh      1  lig      -0.015438
     39 H_12         50.8610    5.9254    1.3971 hi      1  lig      -0.015438
     40 H_13         48.4747    6.3615    4.2957 hj      1  lig      -0.009114
     41 H_14         48.5231    5.7266    2.6660 hk      1  lig      -0.009114
     42 H_15         47.3546    7.9174    2.6730 hl      1  lig       0.089839
     43 H_16         48.6790    8.6633    3.5366 hm      1  lig       0.089839
     44 H_17         50.5747    5.5212    3.6647 hq      1  lig       0.349268
@<TRIPOS>BOND
     1     1     2    1
     2     1     5    1
     3     2     3    2
     4     2     6    1
     5     3     4    1
     6     3    16    1
     7     4     5    2
     8     4    15    1
     9     5     9    1
    10     6     7    1
    11     6     8    2
    12     9    10    2
    13     9    14    1
    14    10    11    1
    15    10    28    1
    16    11    12    2
    17    11    21    1
    18    12    13    1
    19    12    29    1
    20    13    14    2
    21    13    30    1
    22    14    31    1
    23    16    17    1
    24    17    18    1
    25    17    32    1
    26    17    33    1
    27    18    19    1
    28    18    20    2
    29    21    22    1
    30    21    34    1
    31    22    23    1
    32    22    27    1
    33    22    35    1
    34    23    24    1
    35    23    36    1
    36    23    37    1
    37    24    25    1
    38    24    38    1
    39    24    39    1
    40    25    26    1
    41    25    44    1
    42    26    27    1
    43    26    40    1
    44    26    41    1
    45    27    42    1
    46    27    43    1
