@<TRIPOS>MOLECULE
lig
  60   63 0 0 0
SMALL
NO_CHARGES


@<TRIPOS>ATOM
      1 S_00         44.5087   14.2799    0.4458 s0      1  lig      -0.180128
      2 C_01         44.6724   15.6521    1.5151 c4      1  lig       0.067691
      3 C_02         45.4942   15.3357    2.5929 c5      1  lig       0.033319
      4 C_03         45.9327   14.0054    2.5686 c6      1  lig       0.013652
      5 C_04         45.5470   13.2994    1.4352 c7      1  lig      -0.012696
      6 C_05         43.9966   16.9101    1.1914 c8      1  lig       0.756055
      7 O_06         43.3921   16.9804    0.1004 o0      1  lig      -0.720259
      8 O_07         44.0754   17.8442    2.0228 o1      1  lig      -0.752012
      9 C_08         45.8873   11.9043    1.0226 c9      1  lig       0.007081
     10 C_09         47.1912   11.4197    1.1894 cb      1  lig      -0.049479
     11 C_0a         47.5202   10.1013    0.8651 ci      1  lig       0.090846
     12 C_0b         46.5318    9.2669    0.3262 cj      1  lig      -0.060138
     13 C_0c         45.2354    9.7445    0.1362 ck      1  lig      -0.331048
     14 C_0d         44.9145   11.0540    0.4905 cm      1  lig      -0.068589
     15 Br0e         46.9337   13.2378    3.9786 a0      1  lig      -0.130619
     16 O_0f         45.7976   16.2054    3.6038 o2      1  lig      -0.329439
     17 C_0g         47.0769   16.8148    3.4399 cn      1  lig       0.060167
     18 C_0h         47.3906   17.6438    4.6904 co      1  lig       0.846451
     19 O_0i         48.5187   18.1810    4.7214 o3      1  lig      -0.861249
     20 O_0j         46.5366   17.7279    5.6063 o4      1  lig      -0.758618
     21 N_0k         48.8387    9.6745    1.1078 n0      1  lig      -0.662947
     22 C_0l         49.1257    8.2782    1.4384 cq      1  lig       0.166222
     23 C_0m         50.6645    8.1073    1.5183 cr      1  lig      -0.213026
     24 C_0n         51.0793    6.7381    2.0910 cs      1  lig       0.107060
     25 N_0o         50.3594    6.4580    3.3545 ng      1  lig      -0.361246
     26 C_0p         48.8823    6.5385    3.2997 ct      1  lig       0.039731
     27 C_0q         48.4391    7.9131    2.7808 cw      1  lig      -0.123005
     28 S_0r         51.1167    5.4685    4.5967 s1      1  lig       0.989414
     29 O_0s         50.2797    5.5548    5.7948 o5      1  lig      -0.530622
     30 O_0t         52.5388    5.8261    4.6628 o6      1  lig      -0.547331
     31 C_0u         50.9745    3.7099    3.9410 cA      1  lig      -0.079851
     32 C_0v         51.3646    2.7345    5.0334 cB      1  lig      -0.004393
     33 C_0w         52.7085    2.4001    5.2138 cC      1  lig      -0.091623
     34 C_0x         53.0771    1.5613    6.2604 cD      1  lig      -0.166798
     35 C_0y         52.0993    1.0606    7.1156 cE      1  lig      -0.113595
     36 C_0z         50.7556    1.3814    6.9355 cF      1  lig      -0.155418
     37 C_10         50.3863    2.2204    5.8887 cG      1  lig      -0.122814
     38 H_11         47.9504   12.0732    1.5923 h0      1  lig       0.038560
     39 H_12         46.7528    8.2473    0.0505 h6      1  lig       0.074351
     40 H_13         44.4770    9.0946   -0.2738 h7      1  lig       0.157837
     41 H_14         43.9017   11.4033    0.3584 h8      1  lig       0.152808
     42 H_15         47.0819   17.4695    2.5660 h9      1  lig       0.033509
     43 H_16         47.8642   16.0704    3.3056 hb      1  lig       0.033509
     44 H_17         49.4094   10.3360    1.6168 hd      1  lig       0.372368
     45 H_18         48.7423    7.6326    0.6480 he      1  lig       0.085061
     46 H_19         51.0922    8.8778    2.1605 hf      1  lig       0.094345
     47 H_1a         51.1124    8.2471    0.5337 hg      1  lig       0.094345
     48 H_1b         52.1525    6.7104    2.2826 hh      1  lig       0.031084
     49 H_1c         50.8610    5.9254    1.3971 hi      1  lig       0.031084
     50 H_1d         48.4747    6.3615    4.2957 hj      1  lig       0.042756
     51 H_1e         48.5231    5.7266    2.6660 hk      1  lig       0.042756
     52 H_1f         47.3546    7.9174    2.6730 hl      1  lig       0.083876
     53 H_1g         48.6790    8.6633    3.5366 hm      1  lig       0.083876
     54 H_1h         51.6159    3.6211    3.0643 hq      1  lig       0.063316
     55 H_1i         49.9420    3.5568    3.6268 hr      1  lig       0.063316
     56 H_1j         53.4697    2.8056    4.5620 ht      1  lig       0.130619
     57 H_1k         54.1160    1.3061    6.4158 hu      1  lig       0.135691
     58 H_1l         52.3923    0.4142    7.9269 hv      1  lig       0.128451
     59 H_1m         50.0065    0.9844    7.6045 hy      1  lig       0.136567
     60 H_1n         49.3464    2.4834    5.7580 hz      1  lig       0.139169
@<TRIPOS>BOND
     1     1     2    1
     2     1     5    1
     3     2     3    2
     4     2     6    1
     5     3     4    1
     6     3    16    1
     7     4     5    2
     8     4    15    1
     9     5     9    1
    10     6     7    1
    11     6     8    2
    12     9    10    2
    13     9    14    1
    14    10    11    1
    15    10    38    1
    16    11    12    2
    17    11    21    1
    18    12    13    1
    19    12    39    1
    20    13    14    2
    21    13    40    1
    22    14    41    1
    23    16    17    1
    24    17    18    1
    25    17    42    1
    26    17    43    1
    27    18    19    1
    28    18    20    2
    29    21    22    1
    30    21    44    1
    31    22    23    1
    32    22    27    1
    33    22    45    1
    34    23    24    1
    35    23    46    1
    36    23    47    1
    37    24    25    1
    38    24    48    1
    39    24    49    1
    40    25    26    1
    41    25    28    1
    42    26    27    1
    43    26    50    1
    44    26    51    1
    45    27    52    1
    46    27    53    1
    47    28    29    2
    48    28    30    2
    49    28    31    1
    50    31    32    1
    51    31    54    1
    52    31    55    1
    53    32    33    2
    54    32    37    1
    55    33    34    1
    56    33    56    1
    57    34    35    2
    58    34    57    1
    59    35    36    1
    60    35    58    1
    61    36    37    2
    62    36    59    1
    63    37    60    1
