@<TRIPOS>MOLECULE
lig
  36   38 0 0 0
SMALL
NO_CHARGES


@<TRIPOS>ATOM
      1 C_00         -1.9612   21.5502  -27.3300 c4      1  lig      -0.158525
      2 C_01         -1.2942   22.4120  -28.1957 c5      1  lig      -0.078431
      3 C_02         -1.9550   22.9520  -29.2938 c6      1  lig      -0.051793
      4 C_03         -3.2998   22.6223  -29.5426 c7      1  lig       0.131683
      5 C_04         -3.9689   21.7588  -28.6534 c8      1  lig      -0.047840
      6 C_05         -3.2917   21.2292  -27.5624 c9      1  lig      -0.080610
      7 Cl06         -5.6403   21.3533  -28.9190 a0      1  lig      -0.073611
      8 C_07         -4.0401   23.1522  -30.7110 cb      1  lig       0.473958
      9 O_08         -4.2265   22.4198  -31.6685 o0      1  lig      -0.482140
     10 N_09         -4.5133   24.4119  -30.6476 n0      1  lig      -0.338360
     11 C_0a         -5.2869   25.1112  -31.5800 ci      1  lig       0.178839
     12 C_0b         -5.9620   24.5479  -32.6807 cj      1  lig      -0.147733
     13 C_0c         -6.7806   25.3609  -33.4589 ck      1  lig       0.073580
     14 N_0d         -6.9234   26.6542  -33.1828 ng      1  lig      -0.540958
     15 C_0e         -6.2984   27.2317  -32.1577 cm      1  lig       0.567685
     16 C_0f         -5.5070   26.4571  -31.3066 cn      1  lig      -0.388507
     17 N_0g         -6.5391   28.5828  -31.8838 nr      1  lig      -0.458085
     18 C_0h         -5.7134   29.4445  -31.2331 co      1  lig       0.554900
     19 O_0i         -4.6156   29.1218  -30.8098 o1      1  lig      -0.504597
     20 C_0j         -6.2319   30.8471  -31.0310 cq      1  lig      -0.225106
     21 C_0k         -5.5787   31.7462  -29.9763 cr      1  lig      -0.246588
     22 C_0l         -5.3636   32.0236  -31.4653 cs      1  lig      -0.231333
     23 H_0m         -4.3865   31.7887  -31.8874 h0      1  lig       0.135377
     24 Cl0n         -1.1124   24.0506  -30.3318 a1      1  lig      -0.072818
     25 H_0o         -7.3054   30.9413  -31.1624 h6      1  lig       0.164517
     26 H_0p         -5.8627   32.8962  -31.8829 h7      1  lig       0.135377
     27 H_0q         -1.4436   21.1321  -26.4786 h8      1  lig       0.163765
     28 H_0r         -0.2591   22.6635  -28.0157 h9      1  lig       0.144821
     29 H_0s         -3.8111   20.5610  -26.8909 hb      1  lig       0.144879
     30 H_0t         -4.3168   24.9848  -29.8393 hd      1  lig       0.266687
     31 H_0u         -5.8400   23.4993  -32.9094 he      1  lig       0.133420
     32 H_0v         -7.3119   24.9439  -34.3018 hf      1  lig       0.134996
     33 H_0w         -5.0645   26.9093  -30.4313 hg      1  lig       0.185065
     34 H_0x         -7.4045   29.0126  -32.1802 hh      1  lig       0.258080
     35 H_0y         -6.3523   32.2035  -29.3584 hi      1  lig       0.139703
     36 H_0z         -4.9174   31.1488  -29.3474 hj      1  lig       0.139703
@<TRIPOS>BOND
     1     1     2    2
     2     1     6    1
     3     1    27    1
     4     2     3    1
     5     2    28    1
     6     3     4    2
     7     3    24    1
     8     4     5    1
     9     4     8    1
    10     5     6    2
    11     5     7    1
    12     6    29    1
    13     8     9    2
    14     8    10    1
    15    10    11    1
    16    10    30    1
    17    11    12    2
    18    11    16    1
    19    12    13    1
    20    12    31    1
    21    13    14    2
    22    13    32    1
    23    14    15    1
    24    15    16    2
    25    15    17    1
    26    16    33    1
    27    17    18    1
    28    17    34    1
    29    18    19    2
    30    18    20    1
    31    20    21    1
    32    20    22    1
    33    20    25    1
    34    21    22    1
    35    21    35    1
    36    21    36    1
    37    22    23    1
    38    22    26    1
