@<TRIPOS>MOLECULE
lig
  39   41 0 0 0
SMALL
NO_CHARGES


@<TRIPOS>ATOM
      1 C_00         -1.9612   21.5502  -27.3300 c4      1  lig      -0.145642
      2 C_01         -1.2942   22.4120  -28.1957 c5      1  lig      -0.089872
      3 C_02         -1.9550   22.9520  -29.2938 c6      1  lig      -0.039628
      4 C_03         -3.2998   22.6223  -29.5426 c7      1  lig       0.126480
      5 C_04         -3.9689   21.7588  -28.6534 c8      1  lig      -0.056046
      6 C_05         -3.2917   21.2292  -27.5624 c9      1  lig      -0.078086
      7 Cl06         -5.6403   21.3533  -28.9190 a0      1  lig      -0.064524
      8 C_07         -4.0401   23.1522  -30.7110 cb      1  lig       0.486448
      9 O_08         -4.2265   22.4198  -31.6685 o0      1  lig      -0.456909
     10 N_09         -4.5133   24.4119  -30.6476 n0      1  lig      -0.416244
     11 C_0a         -5.2869   25.1112  -31.5800 ci      1  lig       0.271692
     12 C_0b         -5.9620   24.5479  -32.6807 cj      1  lig      -0.156454
     13 C_0c         -6.7806   25.3609  -33.4589 ck      1  lig       0.107980
     14 N_0d         -6.9234   26.6542  -33.1828 ng      1  lig      -0.523044
     15 C_0e         -6.2984   27.2317  -32.1577 cm      1  lig       0.489780
     16 C_0f         -5.5070   26.4571  -31.3066 cn      1  lig      -0.401414
     17 N_0g         -6.5391   28.5828  -31.8838 nr      1  lig      -0.380517
     18 C_0h         -5.7134   29.4445  -31.2331 co      1  lig       0.478450
     19 O_0i         -4.6156   29.1218  -30.8098 o1      1  lig      -0.515251
     20 Cl0j         -1.1124   24.0506  -30.3318 a1      1  lig      -0.071498
     21 H_0k         -1.4436   21.1321  -26.4786 h0      1  lig       0.170463
     22 H_0l         -0.2591   22.6635  -28.0157 h6      1  lig       0.154029
     23 H_0m         -3.8111   20.5610  -26.8909 h7      1  lig       0.152922
     24 H_0n         -4.3168   24.9848  -29.8393 h8      1  lig       0.274484
     25 H_0o         -5.8400   23.4993  -32.9094 h9      1  lig       0.148485
     26 H_0p         -7.3119   24.9439  -34.3018 hb      1  lig       0.144897
     27 H_0q         -5.0645   26.9093  -30.4313 hd      1  lig       0.195664
     28 H_0r         -7.4045   29.0126  -32.1802 he      1  lig       0.268394
     29 C_0s         -6.2070   30.8552  -31.0259 cq      1  lig       0.019628
     30 C_0t         -5.6712   31.4766  -29.7311 cr      1  lig      -0.166886
     31 N_0u         -4.5282   32.0864  -30.5505 nw      1  lig      -0.073765
     32 C_0v         -5.3815   31.8833  -31.8076 cs      1  lig      -0.156334
     33 H_0w         -6.3587   32.2529  -29.3152 hf      1  lig       0.161161
     34 H_0x         -5.3503   30.7399  -28.9565 hg      1  lig       0.161161
     35 H_0y         -5.9737   32.7930  -32.0718 hh      1  lig       0.157985
     36 H_0z         -4.8299   31.4702  -32.6855 hi      1  lig       0.157985
     37 H_10         -7.2836   30.9672  -31.1542 hj      1  lig       0.117290
     38 H_11         -4.3496   33.0279  -30.2314 hk      1  lig       0.273368
     39 H_12         -3.6980   31.5112  -30.5473 hl      1  lig       0.273368
@<TRIPOS>BOND
     1     1     2    2
     2     1     6    1
     3     1    21    1
     4     2     3    1
     5     2    22    1
     6     3     4    2
     7     3    20    1
     8     4     5    1
     9     4     8    1
    10     5     6    2
    11     5     7    1
    12     6    23    1
    13     8     9    2
    14     8    10    1
    15    10    11    1
    16    10    24    1
    17    11    12    2
    18    11    16    1
    19    12    13    1
    20    12    25    1
    21    13    14    2
    22    13    26    1
    23    14    15    1
    24    15    16    2
    25    15    17    1
    26    16    27    1
    27    17    18    1
    28    17    28    1
    29    18    19    2
    30    18    29    1
    31    29    30    1
    32    29    32    1
    33    29    37    1
    34    30    31    1
    35    30    33    1
    36    30    34    1
    37    31    32    1
    38    31    38    1
    39    31    39    1
    40    32    35    1
    41    32    36    1
