@<TRIPOS>MOLECULE
lig
  39   41 0 0 0
SMALL
NO_CHARGES


@<TRIPOS>ATOM
      1 C_00         -1.9612   21.5502  -27.3300 c4      1  lig      -0.158321
      2 C_01         -1.2942   22.4120  -28.1957 c5      1  lig      -0.078715
      3 C_02         -1.9550   22.9520  -29.2938 c6      1  lig      -0.052515
      4 C_03         -3.2998   22.6223  -29.5426 c7      1  lig       0.131080
      5 C_04         -3.9689   21.7588  -28.6534 c8      1  lig      -0.047243
      6 C_05         -3.2917   21.2292  -27.5624 c9      1  lig      -0.080795
      7 Cl06         -5.6403   21.3533  -28.9190 a0      1  lig      -0.075226
      8 C_07         -4.0401   23.1522  -30.7110 cb      1  lig       0.475070
      9 O_08         -4.2265   22.4198  -31.6685 o0      1  lig      -0.481130
     10 N_09         -4.5133   24.4119  -30.6476 n0      1  lig      -0.350117
     11 C_0a         -5.2869   25.1112  -31.5800 ci      1  lig       0.197661
     12 C_0b         -5.9620   24.5479  -32.6807 cj      1  lig      -0.150985
     13 C_0c         -6.7806   25.3609  -33.4589 ck      1  lig       0.080134
     14 N_0d         -6.9234   26.6542  -33.1828 ng      1  lig      -0.540485
     15 C_0e         -6.2987   27.2309  -32.1585 cm      1  lig       0.545430
     16 C_0f         -5.5070   26.4571  -31.3066 cn      1  lig      -0.393140
     17 N_0g         -6.5385   28.5844  -31.8829 nr      1  lig      -0.425039
     18 C_0h         -5.7133   29.4437  -31.2336 co      1  lig       0.570207
     19 O_0i         -4.6155   29.1213  -30.8098 o1      1  lig      -0.493332
     20 C_0j         -6.2316   30.8481  -31.0315 cq      1  lig      -0.293246
     21 C_0k         -5.5796   31.7454  -29.9756 cr      1  lig      -0.194748
     22 C_0l         -5.3594   32.0850  -31.4052 cs      1  lig      -0.143210
     23 Cl0m         -1.1124   24.0506  -30.3318 a1      1  lig      -0.068294
     24 H_0n         -7.3053   30.9413  -31.1624 h0      1  lig       0.181988
     25 H_0o         -5.8633   32.8964  -31.8825 h6      1  lig       0.147684
     26 H_0p         -1.4436   21.1321  -26.4786 h7      1  lig       0.164197
     27 H_0q         -0.2591   22.6635  -28.0157 h8      1  lig       0.144733
     28 H_0r         -3.8111   20.5610  -26.8909 h9      1  lig       0.145550
     29 H_0s         -4.3168   24.9848  -29.8393 hb      1  lig       0.268794
     30 H_0t         -5.8400   23.4993  -32.9094 hd      1  lig       0.134370
     31 H_0u         -7.3119   24.9439  -34.3018 he      1  lig       0.135041
     32 H_0v         -5.0645   26.9093  -30.4313 hf      1  lig       0.190091
     33 H_0w         -7.4044   29.0122  -32.1804 hg      1  lig       0.258374
     34 H_0x         -6.3522   32.2038  -29.3585 hh      1  lig       0.137995
     35 H_0y         -4.9171   31.1491  -29.3474 hi      1  lig       0.137995
     36 C_0z         -3.8854   32.1371  -31.7407 ct      1  lig       0.705673
     37 O_10         -3.1108   32.5811  -30.7271 o2      1  lig      -0.609233
     38 O_11         -3.4924   32.1786  -32.8921 o3      1  lig      -0.565015
     39 H_12         -2.2161   32.7080  -31.0310 hj      1  lig       0.448722
@<TRIPOS>BOND
     1     1     2    2
     2     1     6    1
     3     1    26    1
     4     2     3    1
     5     2    27    1
     6     3     4    2
     7     3    23    1
     8     4     5    1
     9     4     8    1
    10     5     6    2
    11     5     7    1
    12     6    28    1
    13     8     9    2
    14     8    10    1
    15    10    11    1
    16    10    29    1
    17    11    12    2
    18    11    16    1
    19    12    13    1
    20    12    30    1
    21    13    14    2
    22    13    31    1
    23    14    15    1
    24    15    16    2
    25    15    17    1
    26    16    32    1
    27    17    18    1
    28    17    33    1
    29    18    19    2
    30    18    20    1
    31    20    21    1
    32    20    22    1
    33    20    24    1
    34    21    22    1
    35    21    34    1
    36    21    35    1
    37    22    25    1
    38    22    36    1
    39    36    37    1
    40    36    38    2
    41    37    39    1
