@<TRIPOS>MOLECULE
lig
  38   40 0 0 0
SMALL
NO_CHARGES


@<TRIPOS>ATOM
      1 C_00         -1.9612   21.5502  -27.3300 c4      1  lig      -0.168492
      2 C_01         -1.2942   22.4120  -28.1957 c5      1  lig      -0.077853
      3 C_02         -1.9550   22.9520  -29.2938 c6      1  lig      -0.057736
      4 C_03         -3.2998   22.6223  -29.5426 c7      1  lig       0.145325
      5 C_04         -3.9689   21.7588  -28.6534 c8      1  lig      -0.048237
      6 C_05         -3.2917   21.2292  -27.5624 c9      1  lig      -0.081994
      7 Cl06         -5.6403   21.3533  -28.9190 a0      1  lig      -0.090189
      8 C_07         -4.0401   23.1522  -30.7110 cb      1  lig       0.460619
      9 O_08         -4.2265   22.4198  -31.6685 o0      1  lig      -0.511168
     10 N_09         -4.5133   24.4119  -30.6476 n0      1  lig      -0.230958
     11 C_0a         -5.2869   25.1112  -31.5800 ci      1  lig       0.106968
     12 C_0b         -5.9620   24.5479  -32.6807 cj      1  lig      -0.169014
     13 C_0c         -6.7806   25.3609  -33.4589 ck      1  lig       0.059410
     14 N_0d         -6.9234   26.6542  -33.1828 ng      1  lig      -0.596391
     15 C_0e         -6.2987   27.2309  -32.1585 cm      1  lig       0.904525
     16 C_0f         -5.5070   26.4571  -31.3066 cn      1  lig      -0.525003
     17 N_0g         -6.5387   28.5841  -31.8831 nr      1  lig      -0.836142
     18 C_0h         -5.7133   29.4440  -31.2335 co      1  lig       0.740266
     19 O_0i         -4.6156   29.1215  -30.8098 o1      1  lig      -0.606801
     20 C_0j         -6.2317   30.8478  -31.0314 cq      1  lig      -0.219369
     21 C_0k         -5.5793   31.7456  -29.9758 cr      1  lig      -0.362327
     22 C_0l         -5.3432   32.0880  -31.4058 cs      1  lig      -0.029313
     23 Cl0m         -1.1124   24.0506  -30.3318 a1      1  lig      -0.067522
     24 H_0n         -7.3053   30.9413  -31.1624 h0      1  lig       0.122013
     25 H_0o         -5.8632   32.8963  -31.8826 h6      1  lig       0.046673
     26 H_0p         -1.4436   21.1321  -26.4786 h7      1  lig       0.156323
     27 H_0q         -0.2591   22.6635  -28.0157 h8      1  lig       0.136178
     28 H_0r         -3.8111   20.5610  -26.8909 h9      1  lig       0.138737
     29 H_0s         -4.3168   24.9848  -29.8393 hb      1  lig       0.233625
     30 H_0t         -5.8400   23.4993  -32.9094 hd      1  lig       0.127358
     31 H_0u         -7.3119   24.9439  -34.3018 he      1  lig       0.127198
     32 H_0v         -5.0645   26.9093  -30.4313 hf      1  lig       0.263798
     33 H_0w         -7.4044   29.0123  -32.1803 hg      1  lig       0.369483
     34 H_0x         -6.3522   32.2038  -29.3585 hh      1  lig       0.141193
     35 H_0y         -4.9172   31.1490  -29.3474 hi      1  lig       0.141193
     36 C_0z         -3.8988   32.2566  -31.8943 ct      1  lig       0.704520
     37 O_10         -3.1072   32.9673  -31.2449 o2      1  lig      -0.761224
     38 O_11         -3.7376   32.1216  -33.1128 o3      1  lig      -0.685672
@<TRIPOS>BOND
     1     1     2    2
     2     1     6    1
     3     1    26    1
     4     2     3    1
     5     2    27    1
     6     3     4    2
     7     3    23    1
     8     4     5    1
     9     4     8    1
    10     5     6    2
    11     5     7    1
    12     6    28    1
    13     8     9    2
    14     8    10    1
    15    10    11    1
    16    10    29    1
    17    11    12    2
    18    11    16    1
    19    12    13    1
    20    12    30    1
    21    13    14    2
    22    13    31    1
    23    14    15    1
    24    15    16    2
    25    15    17    1
    26    16    32    1
    27    17    18    1
    28    17    33    1
    29    18    19    2
    30    18    20    1
    31    20    21    1
    32    20    22    1
    33    20    24    1
    34    21    22    1
    35    21    34    1
    36    21    35    1
    37    22    25    1
    38    22    36    1
    39    36    37    1
    40    36    38    2
