@<TRIPOS>MOLECULE
lig
  49   53 0 0 0
SMALL
NO_CHARGES


@<TRIPOS>ATOM
      1 C_00          5.7537    1.3588  -21.3290 c4      1  lig       0.052750
      2 C_01          6.6094    0.9664  -22.3722 c5      1  lig      -0.163293
      3 C_02          6.8870   -0.3795  -22.6031 c6      1  lig      -0.252667
      4 C_03          6.3384   -1.3579  -21.7814 c7      1  lig       0.370663
      5 C_04          5.4960   -1.0044  -20.7208 c8      1  lig      -0.202067
      6 C_05          5.1948    0.3505  -20.5280 c9      1  lig      -0.105418
      7 C_06          4.9852   -2.0345  -19.7769 cb      1  lig      -0.157539
      8 C_07          5.8545   -2.9083  -19.1148 ci      1  lig       0.385843
      9 N_08          5.4289   -3.8328  -18.2164 n0      1  lig      -0.712877
     10 C_09          4.0946   -3.8799  -17.9860 cj      1  lig       0.733209
     11 N_0a          3.1629   -3.0954  -18.5836 ng      1  lig      -0.740277
     12 C_0b          3.6265   -2.1791  -19.4775 ck      1  lig       0.427389
     13 F_0c          6.6429   -2.6572  -22.0036 f0      1  lig      -0.188940
     14 C_0d          5.8240    3.7834  -22.2044 cm      1  lig      -0.005701
     15 C_0e          6.9712    4.5921  -22.2688 cn      1  lig      -0.190013
     16 C_0f          7.2122    5.3527  -23.4127 co      1  lig       0.238270
     17 N_0g          6.3765    5.3592  -24.4814 nr      1  lig      -0.470289
     18 C_0h          5.2525    4.5887  -24.4232 cq      1  lig       0.314817
     19 C_0i          4.9537    3.7986  -23.3062 cr      1  lig      -0.157297
     20 C_0j          4.3315    4.6368  -25.6485 cs      1  lig       0.337313
     21 F_0k          4.9759    4.1945  -26.7268 f1      1  lig      -0.125971
     22 F_0l          3.2385    3.8904  -25.4994 f2      1  lig      -0.148922
     23 F_0m          3.9522    5.8959  -25.8729 f3      1  lig      -0.134288
     24 H_0n          7.0819    1.6983  -23.0113 h0      1  lig       0.195776
     25 H_0o          7.5383   -0.6711  -23.4138 h6      1  lig       0.195349
     26 H_0p          4.5664    0.6378  -19.7021 h7      1  lig       0.094014
     27 H_0q          6.9219   -2.8618  -19.2917 h8      1  lig       0.103947
     28 H_0r          3.7489   -4.6035  -17.2564 h9      1  lig       0.031138
     29 H_0s          2.8916   -1.5390  -19.9490 hb      1  lig       0.060661
     30 H_0t          7.6877    4.6305  -21.4638 hd      1  lig       0.127780
     31 H_0u          8.0997    5.9682  -23.4829 he      1  lig       0.110888
     32 H_0v          4.0614    3.1871  -23.2931 hf      1  lig       0.121362
     33 C_0w          8.0454    3.4336  -18.1076 ct      1  lig      -0.080011
     34 C_0x          7.6063    3.0817  -19.3829 cw      1  lig      -0.098063
     35 C_0y          6.2525    3.1971  -19.7060 cA      1  lig       0.022418
     36 C_0z          5.3658    3.6262  -18.7183 cB      1  lig       0.072963
     37 C_10          5.7971    3.9851  -17.4395 cC      1  lig      -0.190968
     38 C_11          7.1525    3.8883  -17.1379 cD      1  lig      -0.132825
     39 H_12          5.0975    4.3188  -16.6828 hg      1  lig       0.187931
     40 C_13          4.0535    3.5895  -19.3058 cE      1  lig       0.433554
     41 N_14          4.1452    3.1386  -20.5334 nw      1  lig      -0.236462
     42 C_15          5.5116    2.8575  -21.0001 cF      1  lig      -0.027357
     43 N_16          2.9251    3.9206  -18.7507 nA      1  lig      -0.806287
     44 H_17          9.0929    3.3459  -17.8667 hh      1  lig       0.173156
     45 H_18          8.3197    2.7178  -20.1097 hi      1  lig       0.149472
     46 H_19          7.5098    4.1514  -16.1518 hj      1  lig       0.177954
     47 H_1a          3.2755    3.1368  -21.1049 hk      1  lig       0.329047
     48 H_1b          2.0462    3.8274  -19.3095 hl      1  lig       0.439934
     49 H_1c          2.7801    4.1492  -17.7590 hm      1  lig       0.439934
@<TRIPOS>BOND
     1    42     1    1
     2     1     6    1
     3     1     2    2
     4     2     3    1
     5     2    24    1
     6     3     4    2
     7     3    25    1
     8     4     5    1
     9     4    13    1
    10     5     6    2
    11     5     7    1
    12     6    26    1
    13     7    12    1
    14     7     8    2
    15     8     9    1
    16     8    27    1
    17     9    10    2
    18    10    28    1
    19    10    11    1
    20    11    12    2
    21    12    29    1
    22    14    15    2
    23    14    19    1
    24    14    42    1
    25    15    30    1
    26    15    16    1
    27    16    17    2
    28    16    31    1
    29    17    18    1
    30    18    19    2
    31    18    20    1
    32    19    32    1
    33    20    22    1
    34    20    21    1
    35    20    23    1
    36    33    44    1
    37    33    38    2
    38    33    34    1
    39    34    35    2
    40    34    45    1
    41    35    36    1
    42    35    42    1
    43    36    37    2
    44    36    40    1
    45    37    38    1
    46    37    39    1
    47    38    46    1
    48    40    43    1
    49    40    41    2
    50    41    42    1
    51    41    47    1
    52    43    49    1
    53    43    48    1
