@<TRIPOS>MOLECULE
lig
  48   52 0 0 0
SMALL
NO_CHARGES


@<TRIPOS>ATOM
      1 C_00          5.7847    1.2702  -21.3653 c4      1  lig       0.059327
      2 C_01          6.6171    0.8570  -22.4185 c5      1  lig      -0.156613
      3 C_02          6.8786   -0.4945  -22.6339 c6      1  lig      -0.261876
      4 C_03          6.3358   -1.4564  -21.7887 c7      1  lig       0.377939
      5 C_04          5.5151   -1.0795  -20.7190 c8      1  lig      -0.191228
      6 C_05          5.2310    0.2802  -20.5380 c9      1  lig      -0.123714
      7 C_06          5.0080   -2.0904  -19.7537 cb      1  lig      -0.166772
      8 C_07          5.8794   -2.9545  -19.0819 ci      1  lig       0.389321
      9 N_08          5.4567   -3.8618  -18.1651 n0      1  lig      -0.712537
     10 C_09          4.1235   -3.9017  -17.9263 cj      1  lig       0.736409
     11 N_0a          3.1900   -3.1256  -18.5322 ng      1  lig      -0.740500
     12 C_0b          3.6506   -2.2258  -19.4437 ck      1  lig       0.429963
     13 F_0c          6.6240   -2.7615  -21.9971 f0      1  lig      -0.188632
     14 C_0d          5.8788    3.6926  -22.2564 cm      1  lig      -0.005192
     15 C_0e          7.0461    4.4714  -22.3341 cn      1  lig      -0.186873
     16 C_0f          7.2812    5.2453  -23.4700 co      1  lig       0.238762
     17 N_0g          6.4227    5.2906  -24.5192 nr      1  lig      -0.468701
     18 C_0h          5.2838    4.5439  -24.4521 cq      1  lig       0.320887
     19 C_0i          4.9882    3.7433  -23.3415 cr      1  lig      -0.165141
     20 C_0j          4.3444    4.6287  -25.6615 cs      1  lig       0.334982
     21 F_0k          4.9650    4.1905  -26.7552 f1      1  lig      -0.124839
     22 F_0l          3.2414    3.8986  -25.5057 f2      1  lig      -0.148327
     23 F_0m          3.9842    5.8975  -25.8617 f3      1  lig      -0.132362
     24 H_0n          7.0842    1.5748  -23.0775 h0      1  lig       0.196573
     25 H_0o          7.5120   -0.8031  -23.4525 h6      1  lig       0.197813
     26 H_0p          4.6222    0.5803  -19.7005 h7      1  lig       0.100250
     27 H_0q          6.9458   -2.9143  -19.2664 h8      1  lig       0.102252
     28 H_0r          3.7801   -4.6114  -17.1826 h9      1  lig       0.031532
     29 H_0s          2.9138   -1.5927  -19.9220 hb      1  lig       0.061964
     30 H_0t          7.7827    4.4824  -21.5464 hd      1  lig       0.123965
     31 H_0u          8.1818    5.8406  -23.5497 he      1  lig       0.113047
     32 H_0v          4.0794    3.1562  -23.3244 hf      1  lig       0.127680
     33 C_0w          8.0864    3.3267  -18.1459 ct      1  lig      -0.162904
     34 C_0x          7.6665    2.9686  -19.4293 cw      1  lig      -0.065783
     35 C_0y          6.3159    3.1065  -19.7699 cA      1  lig      -0.038266
     36 C_0z          5.4431    3.5599  -18.7860 cB      1  lig       0.484702
     37 N_10          5.8240    3.9260  -17.5323 nw      1  lig      -0.491233
     38 C_11          7.1434    3.8042  -17.2314 cC      1  lig       0.131957
     39 C_12          4.1125    3.5343  -19.3456 cD      1  lig       0.217510
     40 N_13          4.1959    3.0686  -20.5821 nA      1  lig      -0.193734
     41 C_14          5.5612    2.7720  -21.0511 cE      1  lig      -0.072861
     42 N_15          2.9809    3.8842  -18.7585 nB      1  lig      -0.613186
     43 H_16          9.1214    3.2288  -17.8643 hg      1  lig       0.174625
     44 H_17          8.3844    2.5829  -20.1396 hh      1  lig       0.174435
     45 H_18          7.4423    4.0854  -16.2296 hi      1  lig       0.159458
     46 H_19          3.3582    3.0340  -21.1728 hj      1  lig       0.338889
     47 H_1a          2.0768    3.8122  -19.2856 hk      1  lig       0.393516
     48 H_1b          2.8658    4.1364  -17.7670 hl      1  lig       0.393516
@<TRIPOS>BOND
     1    41     1    1
     2     1     6    1
     3     1     2    2
     4     2     3    1
     5     2    24    1
     6     3     4    2
     7     3    25    1
     8     4     5    1
     9     4    13    1
    10     5     6    2
    11     5     7    1
    12     6    26    1
    13     7    12    1
    14     7     8    2
    15     8     9    1
    16     8    27    1
    17     9    10    2
    18    10    28    1
    19    10    11    1
    20    11    12    2
    21    12    29    1
    22    14    15    2
    23    14    19    1
    24    14    41    1
    25    15    30    1
    26    15    16    1
    27    16    17    2
    28    16    31    1
    29    17    18    1
    30    18    19    2
    31    18    20    1
    32    19    32    1
    33    20    22    1
    34    20    21    1
    35    20    23    1
    36    33    43    1
    37    33    38    2
    38    33    34    1
    39    34    35    2
    40    34    44    1
    41    35    36    1
    42    35    41    1
    43    36    37    2
    44    36    39    1
    45    37    38    1
    46    38    45    1
    47    39    42    1
    48    39    40    2
    49    40    41    1
    50    40    46    1
    51    42    48    1
    52    42    47    1
