@<TRIPOS>MOLECULE
lig
  48   52 0 0 0
SMALL
NO_CHARGES


@<TRIPOS>ATOM
      1 C_00          5.8140    1.2984  -21.3321 c4      1  lig       0.040230
      2 C_01          6.6410    0.8905  -22.3919 c5      1  lig      -0.182666
      3 C_02          6.9005   -0.4600  -22.6162 c6      1  lig      -0.235265
      4 C_03          6.3610   -1.4263  -21.7740 c7      1  lig       0.368342
      5 C_04          5.5468   -1.0550  -20.6977 c8      1  lig      -0.193034
      6 C_05          5.2661    0.3040  -20.5062 c9      1  lig      -0.111223
      7 C_06          5.0395   -2.0728  -19.7399 cb      1  lig      -0.159521
      8 C_07          5.9111   -2.9359  -19.0673 ci      1  lig       0.387223
      9 N_08          5.4869   -3.8514  -18.1593 n0      1  lig      -0.712682
     10 C_09          4.1521   -3.9007  -17.9309 cj      1  lig       0.738305
     11 N_0a          3.2186   -3.1264  -18.5389 ng      1  lig      -0.741911
     12 C_0b          3.6806   -2.2181  -19.4412 ck      1  lig       0.422981
     13 F_0c          6.6444   -2.7308  -21.9930 f0      1  lig      -0.187789
     14 C_0d          5.8963    3.7209  -22.2211 cm      1  lig       0.003235
     15 C_0e          7.0542    4.5139  -22.2915 cn      1  lig      -0.247429
     16 C_0f          7.2906    5.2834  -23.4307 co      1  lig       0.277278
     17 N_0g          6.4419    5.3123  -24.4887 nr      1  lig      -0.479119
     18 C_0h          5.3103    4.5540  -24.4273 cq      1  lig       0.326171
     19 C_0i          5.0151    3.7558  -23.3151 cr      1  lig      -0.167057
     20 C_0j          4.3774    4.6239  -25.6435 cs      1  lig       0.335773
     21 F_0k          5.0023    4.1706  -26.7284 f1      1  lig      -0.123366
     22 F_0l          3.2728    3.8968  -25.4841 f2      1  lig      -0.151358
     23 F_0m          4.0187    5.8900  -25.8632 f3      1  lig      -0.133690
     24 H_0n          7.1027    1.6108  -23.0520 h0      1  lig       0.204518
     25 H_0o          7.5282   -0.7651  -23.4405 h6      1  lig       0.194409
     26 H_0p          4.6603    0.6002  -19.6650 h7      1  lig       0.092608
     27 H_0q          6.9785   -2.8888  -19.2442 h8      1  lig       0.105146
     28 H_0r          3.8070   -4.6166  -17.1939 h9      1  lig       0.030745
     29 H_0s          2.9436   -1.5863  -19.9211 hb      1  lig       0.064108
     30 H_0t          7.7822    4.5401  -21.4964 hd      1  lig       0.148650
     31 H_0u          8.1844    5.8895  -23.5057 he      1  lig       0.104586
     32 H_0v          4.1132    3.1579  -23.3035 hf      1  lig       0.133788
     33 N_0w          8.1211    3.3495  -18.1295 nw      1  lig      -0.494681
     34 C_0x          7.6569    3.0230  -19.3657 ct      1  lig       0.292650
     35 C_0y          6.3088    3.1408  -19.7218 cw      1  lig      -0.008972
     36 C_0z          5.4145    3.5662  -18.7408 cA      1  lig       0.098363
     37 C_10          5.8623    3.9113  -17.4643 cB      1  lig      -0.303730
     38 C_11          7.2281    3.7900  -17.2019 cC      1  lig       0.255896
     39 H_12          5.1754    4.2444  -16.6975 hg      1  lig       0.185914
     40 C_13          4.1033    3.5345  -19.3284 cD      1  lig       0.475888
     41 N_14          4.2042    3.0815  -20.5673 nA      1  lig      -0.237259
     42 C_15          5.5776    2.7987  -21.0169 cE      1  lig      -0.059240
     43 N_16          2.9686    3.8740  -18.7491 nB      1  lig      -0.819380
     44 H_17          8.3904    2.6534  -20.0704 hh      1  lig       0.097454
     45 H_18          7.6223    4.0365  -16.2245 hi      1  lig       0.128552
     46 H_19          2.8262    4.1197  -17.7580 hj      1  lig       0.449835
     47 H_1a          2.0713    3.8048  -19.2885 hk      1  lig       0.449835
     48 H_1b          3.3743    3.0426  -21.1673 hl      1  lig       0.336889
@<TRIPOS>BOND
     1    42     1    1
     2     1     6    1
     3     1     2    2
     4     2     3    1
     5     2    24    1
     6     3     4    2
     7     3    25    1
     8     4     5    1
     9     4    13    1
    10     5     6    2
    11     5     7    1
    12     6    26    1
    13     7    12    1
    14     7     8    2
    15     8     9    1
    16     8    27    1
    17     9    10    2
    18    10    28    1
    19    10    11    1
    20    11    12    2
    21    12    29    1
    22    14    15    2
    23    14    19    1
    24    14    42    1
    25    15    30    1
    26    15    16    1
    27    16    17    2
    28    16    31    1
    29    17    18    1
    30    18    19    2
    31    18    20    1
    32    19    32    1
    33    20    22    1
    34    20    21    1
    35    20    23    1
    36    33    38    2
    37    33    34    1
    38    34    35    2
    39    34    44    1
    40    35    42    1
    41    35    36    1
    42    36    37    2
    43    36    40    1
    44    37    38    1
    45    37    39    1
    46    38    45    1
    47    40    43    1
    48    40    41    2
    49    41    42    1
    50    41    48    1
    51    43    46    1
    52    43    47    1
