@<TRIPOS>MOLECULE
lig
  48   52 0 0 0
SMALL
NO_CHARGES


@<TRIPOS>ATOM
      1 C_00          5.8116    1.2907  -21.3242 c4      1  lig       0.102954
      2 C_01          6.6380    0.8781  -22.3833 c5      1  lig      -0.157402
      3 C_02          6.8942   -0.4731  -22.6063 c6      1  lig      -0.251475
      4 C_03          6.3528   -1.4369  -21.7629 c7      1  lig       0.377895
      5 C_04          5.5392   -1.0620  -20.6873 c8      1  lig      -0.230104
      6 C_05          5.2616    0.2980  -20.4976 c9      1  lig      -0.102527
      7 C_06          5.0310   -2.0776  -19.7279 cb      1  lig      -0.144989
      8 C_07          5.9030   -2.9370  -19.0510 ci      1  lig       0.384716
      9 N_08          5.4788   -3.8508  -18.1414 n0      1  lig      -0.715176
     10 C_09          4.1437   -3.9024  -17.9157 cj      1  lig       0.736195
     11 N_0a          3.2099   -3.1319  -18.5279 ng      1  lig      -0.741046
     12 C_0b          3.6717   -2.2252  -19.4319 ck      1  lig       0.415063
     13 F_0c          6.6341   -2.7422  -21.9796 f0      1  lig      -0.190658
     14 C_0d          5.9076    3.7015  -22.2240 cm      1  lig      -0.029777
     15 C_0e          7.1046    4.4309  -22.3215 cn      1  lig      -0.249704
     16 C_0f          7.3538    5.1918  -23.4634 co      1  lig       0.274552
     17 N_0g          6.4851    5.2649  -24.5030 nr      1  lig      -0.479087
     18 C_0h          5.3224    4.5572  -24.4223 cq      1  lig       0.312300
     19 C_0i          5.0090    3.7766  -23.3023 cr      1  lig      -0.119961
     20 C_0j          4.3802    4.6561  -25.6299 cs      1  lig       0.351615
     21 F_0k          4.9915    4.2160  -26.7282 f1      1  lig      -0.124544
     22 F_0l          3.2713    3.9346  -25.4747 f2      1  lig      -0.151994
     23 F_0m          4.0318    5.9291  -25.8255 f3      1  lig      -0.142807
     24 H_0n          7.1046    1.5950  -23.0433 h0      1  lig       0.192750
     25 H_0o          7.5225   -0.7799  -23.4295 h6      1  lig       0.196714
     26 H_0p          4.6562    0.5960  -19.6571 h7      1  lig       0.082611
     27 H_0q          6.9707   -2.8880  -19.2261 h8      1  lig       0.104741
     28 H_0r          3.7986   -4.6173  -17.1777 h9      1  lig       0.029699
     29 H_0s          2.9343   -1.5969  -19.9154 hb      1  lig       0.067740
     30 H_0t          7.8560    4.4047  -21.5470 hd      1  lig       0.166015
     31 H_0u          8.2767    5.7495  -23.5577 he      1  lig       0.103790
     32 H_0v          4.0818    3.2193  -23.2770 hf      1  lig       0.104891
     33 C_0w          8.0488    3.3782  -18.2045 ct      1  lig       0.288493
     34 N_0x          7.6218    3.0442  -19.4502 nw      1  lig      -0.485886
     35 C_0y          6.2920    3.1544  -19.7065 cw      1  lig       0.373491
     36 C_0z          5.3945    3.5622  -18.7287 cA      1  lig       0.010528
     37 C_10          5.8350    3.9086  -17.4524 cB      1  lig      -0.094978
     38 C_11          7.1994    3.8136  -17.1856 cC      1  lig      -0.268919
     39 H_12          5.1420    4.2297  -16.6854 hg      1  lig       0.201670
     40 C_13          4.0931    3.5222  -19.3257 cD      1  lig       0.313434
     41 N_14          4.1986    3.0751  -20.5665 nA      1  lig      -0.189792
     42 C_15          5.5740    2.7943  -21.0102 cE      1  lig      -0.089540
     43 N_16          2.9591    3.8567  -18.7488 nB      1  lig      -0.722567
     44 H_17          9.1108    3.2871  -18.0251 hh      1  lig       0.126200
     45 H_18          7.5897    4.0630  -16.2094 hi      1  lig       0.188327
     46 H_19          3.3694    3.0375  -21.1682 hj      1  lig       0.331221
     47 H_1a          2.0628    3.7922  -19.2911 hk      1  lig       0.422664
     48 H_1b          2.8133    4.1039  -17.7586 hl      1  lig       0.422664
@<TRIPOS>BOND
     1    42     1    1
     2     1     6    1
     3     1     2    2
     4     2     3    1
     5     2    24    1
     6     3     4    2
     7     3    25    1
     8     4     5    1
     9     4    13    1
    10     5     6    2
    11     5     7    1
    12     6    26    1
    13     7    12    1
    14     7     8    2
    15     8     9    1
    16     8    27    1
    17     9    10    2
    18    10    28    1
    19    10    11    1
    20    11    12    2
    21    12    29    1
    22    14    15    2
    23    14    19    1
    24    14    42    1
    25    15    30    1
    26    15    16    1
    27    16    17    2
    28    16    31    1
    29    17    18    1
    30    18    19    2
    31    18    20    1
    32    19    32    1
    33    20    22    1
    34    20    21    1
    35    20    23    1
    36    33    44    1
    37    33    38    2
    38    33    34    1
    39    34    35    2
    40    35    36    1
    41    35    42    1
    42    36    37    2
    43    36    40    1
    44    37    38    1
    45    37    39    1
    46    38    45    1
    47    40    43    1
    48    40    41    2
    49    41    42    1
    50    41    46    1
    51    43    48    1
    52    43    47    1
