@<TRIPOS>MOLECULE
lig
  47   51 0 0 0
SMALL
NO_CHARGES


@<TRIPOS>ATOM
      1 C_00          5.7893    1.2780  -21.3636 c4      1  lig       0.057123
      2 C_01          6.6236    0.8676  -22.4163 c5      1  lig      -0.182413
      3 C_02          6.8851   -0.4833  -22.6348 c6      1  lig      -0.240091
      4 C_03          6.3409   -1.4475  -21.7930 c7      1  lig       0.374579
      5 C_04          5.5184   -1.0732  -20.7236 c8      1  lig      -0.190472
      6 C_05          5.2340    0.2859  -20.5397 c9      1  lig      -0.112075
      7 C_06          5.0085   -2.0859  -19.7615 cb      1  lig      -0.166025
      8 C_07          5.8772   -2.9549  -19.0924 ci      1  lig       0.388767
      9 N_08          5.4515   -3.8634  -18.1782 n0      1  lig      -0.711612
     10 C_09          4.1183   -3.8993  -17.9391 cj      1  lig       0.740390
     11 N_0a          3.1874   -3.1181  -18.5422 ng      1  lig      -0.741935
     12 C_0b          3.6507   -2.2175  -19.4514 ck      1  lig       0.426515
     13 F_0c          6.6291   -2.7521  -22.0047 f0      1  lig      -0.187045
     14 C_0d          5.8720    3.6996  -22.2551 cm      1  lig       0.012547
     15 C_0e          7.0334    4.4871  -22.3354 cn      1  lig      -0.224090
     16 C_0f          7.2617    5.2607  -23.4729 co      1  lig       0.268542
     17 N_0g          6.4019    5.2972  -24.5210 nr      1  lig      -0.473840
     18 C_0h          5.2682    4.5432  -24.4508 cq      1  lig       0.324399
     19 C_0i          4.9786    3.7424  -23.3387 cr      1  lig      -0.161089
     20 C_0j          4.3282    4.6197  -25.6595 cs      1  lig       0.331585
     21 F_0k          4.9511    4.1807  -26.7516 f1      1  lig      -0.121294
     22 F_0l          3.2292    3.8847  -25.4995 f2      1  lig      -0.150431
     23 F_0m          3.9616    5.8859  -25.8634 f3      1  lig      -0.131297
     24 H_0n          7.0916    1.5865  -23.0736 h0      1  lig       0.206725
     25 H_0o          7.5193   -0.7903  -23.4534 h6      1  lig       0.196203
     26 H_0p          4.6217    0.5821  -19.7033 h7      1  lig       0.095321
     27 H_0q          6.9438   -2.9181  -19.2764 h8      1  lig       0.104087
     28 H_0r          3.7726   -4.6103  -17.1975 h9      1  lig       0.031496
     29 H_0s          2.9157   -1.5805  -19.9272 hb      1  lig       0.064621
     30 H_0t          7.7715    4.5072  -21.5495 hd      1  lig       0.137332
     31 H_0u          8.1575    5.8631  -23.5548 he      1  lig       0.107599
     32 H_0v          4.0728    3.1501  -23.3198 hf      1  lig       0.139168
     33 N_0w          8.1217    3.3272  -18.1800 nw      1  lig      -0.624886
     34 C_0x          7.6685    2.9885  -19.4177 ct      1  lig       0.383246
     35 C_0y          6.3223    3.1131  -19.7736 cw      1  lig      -0.128633
     36 C_0z          5.4606    3.5600  -18.7805 cA      1  lig       0.563852
     37 N_10          5.8662    3.9190  -17.5326 nA      1  lig      -0.673582
     38 C_11          7.1965    3.7831  -17.2924 cB      1  lig       0.605896
     39 C_12          4.1222    3.5355  -19.3302 cC      1  lig       0.275536
     40 N_13          4.1997    3.0731  -20.5694 nB      1  lig      -0.188455
     41 C_14          5.5629    2.7784  -21.0489 cD      1  lig      -0.157284
     42 N_15          2.9893    3.8814  -18.7397 nC      1  lig      -0.652352
     43 H_16          8.4024    2.6081  -20.1171 hg      1  lig       0.117257
     44 H_17          7.5513    4.0530  -16.3040 hh      1  lig       0.094900
     45 H_18          3.3576    3.0363  -21.1540 hi      1  lig       0.345943
     46 H_19          2.0851    3.8100  -19.2668 hj      1  lig       0.412636
     47 H_1a          2.8701    4.1344  -17.7477 hk      1  lig       0.412636
@<TRIPOS>BOND
     1    41     1    1
     2     1     6    1
     3     1     2    2
     4     2     3    1
     5     2    24    1
     6     3     4    2
     7     3    25    1
     8     4     5    1
     9     4    13    1
    10     5     6    2
    11     5     7    1
    12     6    26    1
    13     7    12    1
    14     7     8    2
    15     8     9    1
    16     8    27    1
    17     9    10    2
    18    10    28    1
    19    10    11    1
    20    11    12    2
    21    12    29    1
    22    14    15    2
    23    14    19    1
    24    14    41    1
    25    15    30    1
    26    15    16    1
    27    16    17    2
    28    16    31    1
    29    17    18    1
    30    18    19    2
    31    18    20    1
    32    19    32    1
    33    20    22    1
    34    20    21    1
    35    20    23    1
    36    33    38    2
    37    33    34    1
    38    34    35    2
    39    34    43    1
    40    35    36    1
    41    35    41    1
    42    36    37    2
    43    36    39    1
    44    37    38    1
    45    38    44    1
    46    39    42    1
    47    39    40    2
    48    40    41    1
    49    40    45    1
    50    42    47    1
    51    42    46    1
