@<TRIPOS>MOLECULE
lig
  47   51 0 0 0
SMALL
NO_CHARGES


@<TRIPOS>ATOM
      1 C_00          5.7860    1.2751  -21.3558 c4      1  lig       0.113734
      2 C_01          6.6270    0.8628  -22.4030 c5      1  lig      -0.165275
      3 C_02          6.8868   -0.4883  -22.6214 c6      1  lig      -0.243689
      4 C_03          6.3367   -1.4516  -21.7830 c7      1  lig       0.374072
      5 C_04          5.5094   -1.0763  -20.7177 c8      1  lig      -0.219432
      6 C_05          5.2249    0.2832  -20.5357 c9      1  lig      -0.108939
      7 C_06          4.9970   -2.0885  -19.7564 cb      1  lig      -0.150964
      8 C_07          5.8646   -2.9565  -19.0846 ci      1  lig       0.386491
      9 N_08          5.4376   -3.8647  -18.1709 n0      1  lig      -0.713792
     10 C_09          4.1039   -3.9012  -17.9346 cj      1  lig       0.736666
     11 N_0a          3.1739   -3.1210  -18.5402 ng      1  lig      -0.739006
     12 C_0b          3.6386   -2.2207  -19.4491 ck      1  lig       0.416146
     13 F_0c          6.6247   -2.7565  -21.9930 f0      1  lig      -0.188711
     14 C_0d          5.8748    3.6857  -22.2572 cm      1  lig      -0.032025
     15 C_0e          7.0627    4.4298  -22.3596 cn      1  lig      -0.231132
     16 C_0f          7.2993    5.1949  -23.5006 co      1  lig       0.265769
     17 N_0g          6.4246    5.2599  -24.5347 nr      1  lig      -0.473109
     18 C_0h          5.2695    4.5407  -24.4481 cq      1  lig       0.315293
     19 C_0i          4.9679    3.7539  -23.3289 cr      1  lig      -0.116350
     20 C_0j          4.3222    4.6350  -25.6498 cs      1  lig       0.342467
     21 F_0k          4.9351    4.2047  -26.7511 f1      1  lig      -0.122360
     22 F_0l          3.2215    3.9023  -25.4904 f2      1  lig      -0.149733
     23 F_0m          3.9610    5.9052  -25.8376 f3      1  lig      -0.138774
     24 H_0n          7.1050    1.5808  -23.0539 h0      1  lig       0.196631
     25 H_0o          7.5272   -0.7952  -23.4351 h6      1  lig       0.196545
     26 H_0p          4.6091    0.5800  -19.7024 h7      1  lig       0.087443
     27 H_0q          6.9316   -2.9188  -19.2662 h8      1  lig       0.104636
     28 H_0r          3.7572   -4.6122  -17.1935 h9      1  lig       0.031013
     29 H_0s          2.9044   -1.5846  -19.9271 hb      1  lig       0.067327
     30 H_0t          7.8177    4.4143  -21.5886 hd      1  lig       0.159762
     31 H_0u          8.2157    5.7632  -23.5980 he      1  lig       0.107535
     32 H_0v          4.0443    3.1903  -23.2981 hf      1  lig       0.107816
     33 C_0w          8.0704    3.3401  -18.2579 ct      1  lig       0.185353
     34 N_0x          7.6434    2.9986  -19.5069 nw      1  lig      -0.395682
     35 C_0y          6.3082    3.1279  -19.7576 cw      1  lig       0.243208
     36 C_0z          5.4338    3.5541  -18.7652 cA      1  lig       0.424490
     37 N_10          5.8430    3.9057  -17.5148 nA      1  lig      -0.411191
     38 C_11          7.1798    3.7915  -17.2739 cB      1  lig       0.044834
     39 C_12          4.1070    3.5247  -19.3240 cC      1  lig       0.160862
     40 N_13          4.1913    3.0696  -20.5656 nB      1  lig      -0.166414
     41 C_14          5.5572    2.7781  -21.0406 cD      1  lig      -0.131635
     42 N_15          2.9758    3.8661  -18.7359 nC      1  lig      -0.585882
     43 H_16          9.1264    3.2465  -18.0531 hg      1  lig       0.132934
     44 H_17          7.5324    4.0565  -16.2865 hh      1  lig       0.159661
     45 H_18          3.3496    3.0336  -21.1513 hi      1  lig       0.339807
     46 H_19          2.0730    3.7992  -19.2665 hj      1  lig       0.391800
     47 H_1a          2.8525    4.1192  -17.7445 hk      1  lig       0.391800
@<TRIPOS>BOND
     1    41     1    1
     2     1     6    1
     3     1     2    2
     4     2     3    1
     5     2    24    1
     6     3     4    2
     7     3    25    1
     8     4     5    1
     9     4    13    1
    10     5     6    2
    11     5     7    1
    12     6    26    1
    13     7    12    1
    14     7     8    2
    15     8     9    1
    16     8    27    1
    17     9    10    2
    18    10    28    1
    19    10    11    1
    20    11    12    2
    21    12    29    1
    22    14    15    2
    23    14    19    1
    24    14    41    1
    25    15    30    1
    26    15    16    1
    27    16    17    2
    28    16    31    1
    29    17    18    1
    30    18    19    2
    31    18    20    1
    32    19    32    1
    33    20    22    1
    34    20    21    1
    35    20    23    1
    36    33    43    1
    37    33    38    2
    38    33    34    1
    39    34    35    2
    40    35    36    1
    41    35    41    1
    42    36    37    2
    43    36    39    1
    44    37    38    1
    45    38    44    1
    46    39    42    1
    47    39    40    2
    48    40    41    1
    49    40    45    1
    50    42    47    1
    51    42    46    1
