@<TRIPOS>MOLECULE
lig
  48   52 0 0 0
SMALL
NO_CHARGES


@<TRIPOS>ATOM
      1 C_00          5.7798    1.2748  -21.3932 c4      1  lig       0.047548
      2 C_01          6.6138    0.8564  -22.4428 c5      1  lig      -0.177123
      3 C_02          6.8744   -0.4961  -22.6520 c6      1  lig      -0.239749
      4 C_03          6.3285   -1.4536  -21.8040 c7      1  lig       0.372757
      5 C_04          5.5049   -1.0715  -20.7381 c8      1  lig      -0.197231
      6 C_05          5.2213    0.2895  -20.5634 c9      1  lig      -0.105492
      7 C_06          4.9944   -2.0793  -19.7711 cb      1  lig      -0.159728
      8 C_07          5.8625   -2.9466  -19.0990 ci      1  lig       0.386792
      9 N_08          5.4364   -3.8536  -18.1835 n0      1  lig      -0.711743
     10 C_09          4.1030   -3.8896  -17.9458 cj      1  lig       0.738477
     11 N_0a          3.1725   -3.1095  -18.5510 ng      1  lig      -0.740403
     12 C_0b          3.6365   -2.2099  -19.4612 ck      1  lig       0.422888
     13 F_0c          6.6165   -2.7598  -22.0061 f0      1  lig      -0.187175
     14 C_0d          5.8664    3.6934  -22.2998 cm      1  lig       0.009877
     15 C_0e          7.0282    4.4803  -22.3924 cn      1  lig      -0.226417
     16 C_0f          7.2445    5.2570  -23.5294 co      1  lig       0.264690
     17 N_0g          6.3728    5.2977  -24.5668 nr      1  lig      -0.473354
     18 C_0h          5.2400    4.5434  -24.4861 cq      1  lig       0.323254
     19 C_0i          4.9617    3.7391  -23.3734 cr      1  lig      -0.164648
     20 C_0j          4.2882    4.6266  -25.6842 cs      1  lig       0.335605
     21 F_0k          4.9076    4.2131  -26.7882 f1      1  lig      -0.123185
     22 F_0l          3.1995    3.8764  -25.5268 f2      1  lig      -0.150123
     23 F_0m          3.9064    5.8917  -25.8637 f3      1  lig      -0.132741
     24 H_0n          7.0833    1.5712  -23.1032 h0      1  lig       0.201680
     25 H_0o          7.5090   -0.8090  -23.4679 h6      1  lig       0.196087
     26 H_0p          4.6093    0.5937  -19.7294 h7      1  lig       0.092595
     27 H_0q          6.9291   -2.9101  -19.2830 h8      1  lig       0.105254
     28 H_0r          3.7569   -4.6003  -17.2039 h9      1  lig       0.031331
     29 H_0s          2.9026   -1.5731  -19.9389 hb      1  lig       0.064261
     30 H_0t          7.7750    4.5018  -21.6148 hd      1  lig       0.140915
     31 H_0u          8.1392    5.8598  -23.6185 he      1  lig       0.108072
     32 H_0v          4.0545    3.1496  -23.3438 hf      1  lig       0.131908
     33 N_0w          8.2529    3.3273  -18.3414 nw      1  lig      -0.466370
     34 C_0x          7.7108    2.9572  -19.5309 ct      1  lig       0.251448
     35 C_0y          6.3525    3.1212  -19.8281 cw      1  lig      -0.049747
     36 C_0z          5.5175    3.6296  -18.8326 cA      1  lig       0.090641
     37 C_10          6.0538    4.0374  -17.6083 cB      1  lig       0.107610
     38 C_11          7.4250    3.8685  -17.4071 cC      1  lig       0.171037
     39 F_12          5.2941    4.5896  -16.6402 f4      1  lig      -0.150404
     40 C_13          4.1756    3.5903  -19.3586 cD      1  lig       0.435485
     41 N_14          4.2174    3.0896  -20.5839 nA      1  lig      -0.245155
     42 C_15          5.5659    2.7787  -21.0851 cE      1  lig      -0.064094
     43 N_16          3.0587    3.9500  -18.7528 nB      1  lig      -0.754490
     44 H_17          8.3913    2.5263  -20.2535 hg      1  lig       0.116321
     45 H_18          7.8722    4.1685  -16.4705 hh      1  lig       0.156846
     46 H_19          2.9584    4.2140  -17.7617 hi      1  lig       0.435415
     47 H_1a          2.1462    3.8544  -19.2568 hj      1  lig       0.435415
     48 H_1b          3.3634    3.0425  -21.1496 hk      1  lig       0.345163
@<TRIPOS>BOND
     1    42     1    1
     2     1     6    1
     3     1     2    2
     4     2     3    1
     5     2    24    1
     6     3     4    2
     7     3    25    1
     8     4     5    1
     9     4    13    1
    10     5     6    2
    11     5     7    1
    12     6    26    1
    13     7    12    1
    14     7     8    2
    15     8     9    1
    16     8    27    1
    17     9    10    2
    18    10    28    1
    19    10    11    1
    20    11    12    2
    21    12    29    1
    22    14    15    2
    23    14    19    1
    24    14    42    1
    25    15    30    1
    26    15    16    1
    27    16    17    2
    28    16    31    1
    29    17    18    1
    30    18    19    2
    31    18    20    1
    32    19    32    1
    33    20    22    1
    34    20    21    1
    35    20    23    1
    36    33    38    2
    37    33    34    1
    38    34    35    2
    39    34    44    1
    40    35    42    1
    41    35    36    1
    42    36    37    2
    43    36    40    1
    44    37    38    1
    45    37    39    1
    46    38    45    1
    47    40    43    1
    48    40    41    2
    49    41    42    1
    50    41    48    1
    51    43    46    1
    52    43    47    1
