@<TRIPOS>MOLECULE
lig
  49   53 0 0 0
SMALL
NO_CHARGES


@<TRIPOS>ATOM
      1 C_00          5.7111    1.3323  -21.3915 c4      1  lig       0.060795
      2 C_01          6.5729    0.9266  -22.4239 c5      1  lig      -0.161687
      3 C_02          6.8510   -0.4218  -22.6360 c6      1  lig      -0.256326
      4 C_03          6.2962   -1.3892  -21.8057 c7      1  lig       0.375152
      5 C_04          5.4459   -1.0220  -20.7555 c8      1  lig      -0.208662
      6 C_05          5.1420    0.3355  -20.5829 c9      1  lig      -0.095858
      7 C_06          4.9335   -2.0406  -19.7995 cb      1  lig      -0.156946
      8 C_07          5.8010   -2.9135  -19.1333 ci      1  lig       0.386580
      9 N_08          5.3746   -3.8281  -18.2254 n0      1  lig      -0.712545
     10 C_09          4.0413   -3.8656  -17.9881 cj      1  lig       0.733798
     11 N_0a          3.1113   -3.0805  -18.5875 ng      1  lig      -0.738548
     12 C_0b          3.5758   -2.1746  -19.4916 ck      1  lig       0.425834
     13 F_0c          6.6036   -2.6910  -22.0090 f0      1  lig      -0.188414
     14 C_0d          5.7931    3.7535  -22.2871 cm      1  lig       0.001964
     15 C_0e          6.9460    4.5541  -22.3700 cn      1  lig      -0.176934
     16 C_0f          7.1708    5.3221  -23.5111 co      1  lig       0.227197
     17 N_0g          6.3137    5.3441  -24.5612 nr      1  lig      -0.465120
     18 C_0h          5.1862    4.5804  -24.4869 cq      1  lig       0.311691
     19 C_0i          4.9022    3.7823  -23.3711 cr      1  lig      -0.153563
     20 C_0j          4.2444    4.6502  -25.6933 cs      1  lig       0.338794
     21 F_0k          4.8812    4.2594  -26.7959 f1      1  lig      -0.126135
     22 F_0l          3.1689    3.8779  -25.5522 f2      1  lig      -0.148366
     23 F_0m          3.8393    5.9089  -25.8655 f3      1  lig      -0.133832
     24 H_0n          7.0527    1.6511  -23.0659 h0      1  lig       0.194044
     25 H_0o          7.5081   -0.7237  -23.4383 h6      1  lig       0.197055
     26 H_0p          4.5082    0.6335  -19.7643 h7      1  lig       0.092388
     27 H_0q          6.8678   -2.8747  -19.3152 h8      1  lig       0.103677
     28 H_0r          3.6955   -4.5823  -17.2518 h9      1  lig       0.031521
     29 H_0s          2.8423   -1.5345  -19.9652 hb      1  lig       0.061561
     30 H_0t          7.6800    4.5860  -21.5808 hd      1  lig       0.123530
     31 H_0u          8.0610    5.9324  -23.5929 he      1  lig       0.114769
     32 H_0v          4.0039    3.1805  -23.3430 hf      1  lig       0.119464
     33 C_0w          8.1719    3.4011  -18.3188 ct      1  lig      -0.113197
     34 C_0x          7.6478    3.0063  -19.5476 cw      1  lig      -0.094833
     35 C_0y          6.2849    3.1737  -19.8159 cA      1  lig      -0.037083
     36 C_0z          5.4510    3.6840  -18.8190 cB      1  lig       0.068504
     37 C_10          5.9750    4.1043  -17.5951 cC      1  lig       0.193287
     38 C_11          7.3394    3.9600  -17.3497 cD      1  lig      -0.181023
     39 F_12          5.1975    4.6612  -16.6441 f4      1  lig      -0.144924
     40 C_13          4.1118    3.6414  -19.3434 cE      1  lig       0.420185
     41 N_14          4.1507    3.1468  -20.5588 nw      1  lig      -0.262369
     42 C_15          5.4928    2.8354  -21.0733 cF      1  lig      -0.025362
     43 N_16          2.9996    3.9896  -18.7614 nA      1  lig      -0.752640
     44 H_17          9.2243    3.2778  -18.1240 hg      1  lig       0.195993
     45 H_18          8.3057    2.5774  -20.2913 hh      1  lig       0.159688
     46 H_19          7.7486    4.2762  -16.4016 hi      1  lig       0.201339
     47 H_1a          2.1052    3.8709  -19.2871 hj      1  lig       0.427363
     48 H_1b          2.8935    4.2337  -17.7684 hk      1  lig       0.427363
     49 H_1c          3.2617    3.1410  -21.1030 hl      1  lig       0.340831
@<TRIPOS>BOND
     1    42     1    1
     2     1     6    1
     3     1     2    2
     4     2     3    1
     5     2    24    1
     6     3     4    2
     7     3    25    1
     8     4     5    1
     9     4    13    1
    10     5     6    2
    11     5     7    1
    12     6    26    1
    13     7    12    1
    14     7     8    2
    15     8     9    1
    16     8    27    1
    17     9    10    2
    18    10    28    1
    19    10    11    1
    20    11    12    2
    21    12    29    1
    22    14    15    2
    23    14    19    1
    24    14    42    1
    25    15    30    1
    26    15    16    1
    27    16    17    2
    28    16    31    1
    29    17    18    1
    30    18    19    2
    31    18    20    1
    32    19    32    1
    33    20    22    1
    34    20    21    1
    35    20    23    1
    36    33    44    1
    37    33    38    2
    38    33    34    1
    39    34    35    2
    40    34    45    1
    41    35    36    1
    42    35    42    1
    43    36    37    2
    44    36    40    1
    45    37    38    1
    46    37    39    1
    47    38    46    1
    48    40    43    1
    49    40    41    2
    50    41    42    1
    51    41    49    1
    52    43    48    1
    53    43    47    1
