@<TRIPOS>MOLECULE
lig
  49   53 0 0 0
SMALL
NO_CHARGES


@<TRIPOS>ATOM
      1 C_00          5.6901    1.3348  -21.4139 c4      1  lig       0.055816
      2 C_01          6.5536    0.9207  -22.4415 c5      1  lig      -0.159337
      3 C_02          6.8304   -0.4292  -22.6441 c6      1  lig      -0.257308
      4 C_03          6.2708   -1.3899  -21.8097 c7      1  lig       0.372732
      5 C_04          5.4176   -1.0146  -20.7645 c8      1  lig      -0.198086
      6 C_05          5.1150    0.3450  -20.6009 c9      1  lig      -0.110310
      7 C_06          4.9026   -2.0284  -19.8046 cb      1  lig      -0.159482
      8 C_07          5.7680   -2.9012  -19.1355 ci      1  lig       0.385394
      9 N_08          5.3394   -3.8143  -18.2271 n0      1  lig      -0.711424
     10 C_09          4.0058   -3.8499  -17.9918 cj      1  lig       0.732722
     11 N_0a          3.0776   -3.0641  -18.5932 ng      1  lig      -0.738858
     12 C_0b          3.5445   -2.1602  -19.4981 ck      1  lig       0.426595
     13 F_0c          6.5776   -2.6933  -22.0038 f0      1  lig      -0.187990
     14 C_0d          5.7795    3.7513  -22.3261 cm      1  lig      -0.004476
     15 C_0e          6.9353    4.5473  -22.4226 cn      1  lig      -0.192198
     16 C_0f          7.1504    5.3164  -23.5640 co      1  lig       0.240819
     17 N_0g          6.2811    5.3441  -24.6032 nr      1  lig      -0.467599
     18 C_0h          5.1521    4.5841  -24.5173 cq      1  lig       0.308423
     19 C_0i          4.8769    3.7846  -23.4000 cr      1  lig      -0.146804
     20 C_0j          4.1984    4.6619  -25.7129 cs      1  lig       0.330720
     21 F_0k          4.8303    4.2977  -26.8274 f1      1  lig      -0.123216
     22 F_0l          3.1334    3.8749  -25.5750 f2      1  lig      -0.147191
     23 F_0m          3.7782    5.9186  -25.8595 f3      1  lig      -0.131030
     24 H_0n          7.0376    1.6403  -23.0856 h0      1  lig       0.194073
     25 H_0o          7.4899   -0.7371  -23.4422 h6      1  lig       0.197061
     26 H_0p          4.4799    0.6503  -19.7856 h7      1  lig       0.094350
     27 H_0q          6.8351   -2.8645  -19.3162 h8      1  lig       0.103652
     28 H_0r          3.6582   -4.5666  -17.2562 h9      1  lig       0.032052
     29 H_0s          2.8126   -1.5202  -19.9742 hb      1  lig       0.062204
     30 H_0t          7.6790    4.5775  -21.6424 hd      1  lig       0.126432
     31 H_0u          8.0420    5.9236  -23.6541 he      1  lig       0.111464
     32 H_0v          3.9757    3.1880  -23.3613 hf      1  lig       0.120647
     33 C_0w          8.2604    3.4237  -18.4633 ct      1  lig      -0.093676
     34 C_0x          7.6735    2.9722  -19.6401 cw      1  lig      -0.103213
     35 C_0y          6.3108    3.1846  -19.8712 cA      1  lig      -0.013316
     36 C_0z          5.5242    3.7795  -18.8801 cB      1  lig       0.187730
     37 C_10          6.1265    4.2892  -17.7186 cC      1  lig      -0.108688
     38 C_11          7.4940    4.0979  -17.5158 cD      1  lig      -0.080129
     39 Cl12          5.2656    5.1974  -16.5336 a0      1  lig      -0.002449
     40 C_13          4.1587    3.7141  -19.3661 cE      1  lig       0.385338
     41 N_14          4.1618    3.1748  -20.5642 nw      1  lig      -0.222219
     42 C_15          5.4868    2.8413  -21.1034 cF      1  lig      -0.037984
     43 N_16          3.0498    4.0632  -18.7715 nA      1  lig      -0.791587
     44 H_17          9.3142    3.2695  -18.3017 hg      1  lig       0.181856
     45 H_18          8.2859    2.4767  -20.3812 hh      1  lig       0.159982
     46 H_19          7.9663    4.4748  -16.6200 hi      1  lig       0.179828
     47 H_1a          2.1516    3.9147  -19.2798 hj      1  lig       0.436187
     48 H_1b          2.9531    4.3125  -17.7801 hk      1  lig       0.436187
     49 H_1c          3.2610    3.1559  -21.0892 hl      1  lig       0.326306
@<TRIPOS>BOND
     1    42     1    1
     2     1     6    1
     3     1     2    2
     4     2     3    1
     5     2    24    1
     6     3     4    2
     7     3    25    1
     8     4     5    1
     9     4    13    1
    10     5     6    2
    11     5     7    1
    12     6    26    1
    13     7    12    1
    14     7     8    2
    15     8     9    1
    16     8    27    1
    17     9    10    2
    18    10    28    1
    19    10    11    1
    20    11    12    2
    21    12    29    1
    22    14    15    2
    23    14    19    1
    24    14    42    1
    25    15    30    1
    26    15    16    1
    27    16    17    2
    28    16    31    1
    29    17    18    1
    30    18    19    2
    31    18    20    1
    32    19    32    1
    33    20    22    1
    34    20    21    1
    35    20    23    1
    36    33    44    1
    37    33    38    2
    38    33    34    1
    39    34    35    2
    40    34    45    1
    41    35    36    1
    42    35    42    1
    43    36    37    2
    44    36    40    1
    45    37    38    1
    46    37    39    1
    47    38    46    1
    48    40    43    1
    49    40    41    2
    50    41    42    1
    51    41    49    1
    52    43    48    1
    53    43    47    1
