@<TRIPOS>MOLECULE
lig
  50   54 0 0 0
SMALL
NO_CHARGES


@<TRIPOS>ATOM
      1 C_00          5.8088    1.5577  -21.2153 c4      1  lig       0.065038
      2 C_01          6.7054    1.1962  -22.2361 c5      1  lig      -0.162486
      3 C_02          7.0149   -0.1396  -22.4801 c6      1  lig      -0.255553
      4 C_03          6.4591   -1.1406  -21.6925 c7      1  lig       0.372049
      5 C_04          5.5782   -0.8205  -20.6527 c8      1  lig      -0.212148
      6 C_05          5.2466    0.5267  -20.4455 c9      1  lig      -0.090108
      7 C_06          5.0532   -1.8840  -19.7540 cb      1  lig      -0.154162
      8 C_07          5.9161   -2.7400  -19.0605 ci      1  lig       0.385290
      9 N_08          5.4754   -3.7034  -18.2111 n0      1  lig      -0.714146
     10 C_09          4.1327   -3.8092  -18.0635 cj      1  lig       0.732989
     11 N_0a          3.2078   -3.0455  -18.6976 ng      1  lig      -0.740202
     12 C_0b          3.6860   -2.0894  -19.5412 ck      1  lig       0.427153
     13 F_0c          6.7927   -2.4302  -21.9295 f0      1  lig      -0.189588
     14 C_0d          5.7843    3.9623  -22.1272 cm      1  lig       0.001184
     15 C_0e          6.8898    4.8267  -22.2004 cn      1  lig      -0.180111
     16 C_0f          7.1141    5.5581  -23.3667 co      1  lig       0.233453
     17 N_0g          6.3004    5.4845  -24.4497 nr      1  lig      -0.469266
     18 C_0h          5.2134    4.6636  -24.3818 cq      1  lig       0.311081
     19 C_0i          4.9333    3.8983  -23.2426 cr      1  lig      -0.147618
     20 C_0j          4.3106    4.6288  -25.6208 cs      1  lig       0.334222
     21 F_0k          4.9891    4.1785  -26.6750 f1      1  lig      -0.126210
     22 F_0l          3.2484    3.8420  -25.4599 f2      1  lig      -0.147910
     23 F_0m          3.8809    5.8614  -25.8934 f3      1  lig      -0.133550
     24 H_0n          7.1821    1.9453  -22.8520 h0      1  lig       0.194071
     25 H_0o          7.6977   -0.4056  -23.2732 h6      1  lig       0.195627
     26 H_0p          4.5805    0.7897  -19.6416 h7      1  lig       0.089660
     27 H_0q          6.9892   -2.6493  -19.1741 h8      1  lig       0.103806
     28 H_0r          3.7737   -4.5656  -17.3742 h9      1  lig       0.030728
     29 H_0s          2.9546   -1.4685  -20.0432 hb      1  lig       0.061639
     30 H_0t          7.5897    4.9279  -21.3864 hd      1  lig       0.124232
     31 H_0u          7.9712    6.2146  -23.4440 he      1  lig       0.110984
     32 H_0v          4.0724    3.2434  -23.2232 hf      1  lig       0.117671
     33 C_0w          8.0270    3.8733  -18.0569 ct      1  lig      -0.090448
     34 C_0x          7.5779    3.4048  -19.2903 cw      1  lig      -0.116348
     35 C_0y          6.2172    3.4623  -19.6125 cA      1  lig      -0.048304
     36 C_0z          5.3086    3.9345  -18.6548 cB      1  lig       0.096392
     37 C_10          5.7568    4.4305  -17.4227 cC      1  lig       0.240289
     38 C_11          7.1195    4.3975  -17.1368 cD      1  lig      -0.256126
     39 O_12          4.9355    5.0013  -16.4821 o0      1  lig      -0.577175
     40 C_13          4.0083    3.7845  -19.2480 cE      1  lig       0.423715
     41 N_14          4.1301    3.2835  -20.4527 nw      1  lig      -0.279529
     42 C_15          5.5057    3.0504  -20.9030 cF      1  lig      -0.029151
     43 N_16          2.8467    4.0454  -18.7372 nA      1  lig      -0.736880
     44 H_17          9.0798    3.8427  -17.8193 hg      1  lig       0.193198
     45 H_18          8.2950    3.0115  -19.9985 hh      1  lig       0.157923
     46 H_19          7.4757    4.7777  -16.1906 hi      1  lig       0.187267
     47 H_1a          1.9969    3.8856  -19.3290 hj      1  lig       0.421412
     48 H_1b          2.6202    4.2344  -17.7482 hk      1  lig       0.421412
     49 H_1c          3.2671    3.2193  -21.0320 hl      1  lig       0.341521
     50 H_1d          3.9702    4.7881  -16.4550 hm      1  lig       0.483013
@<TRIPOS>BOND
     1    42     1    1
     2     1     6    1
     3     1     2    2
     4     2     3    1
     5     2    24    1
     6     3     4    2
     7     3    25    1
     8     4     5    1
     9     4    13    1
    10     5     6    2
    11     5     7    1
    12     6    26    1
    13     7    12    1
    14     7     8    2
    15     8     9    1
    16     8    27    1
    17     9    10    2
    18    10    28    1
    19    10    11    1
    20    11    12    2
    21    12    29    1
    22    14    15    2
    23    14    19    1
    24    14    42    1
    25    15    30    1
    26    15    16    1
    27    16    17    2
    28    16    31    1
    29    17    18    1
    30    18    19    2
    31    18    20    1
    32    19    32    1
    33    20    22    1
    34    20    21    1
    35    20    23    1
    36    33    44    1
    37    33    38    2
    38    33    34    1
    39    34    35    2
    40    34    45    1
    41    35    36    1
    42    35    42    1
    43    36    37    2
    44    36    40    1
    45    37    38    1
    46    37    39    1
    47    38    46    1
    48    39    50    1
    49    40    43    1
    50    40    41    2
    51    41    42    1
    52    41    49    1
    53    43    48    1
    54    43    47    1
