@<TRIPOS>MOLECULE
lig
  53   57 0 0 0
SMALL
NO_CHARGES


@<TRIPOS>ATOM
      1 C_00          5.7054    1.3210  -21.4221 c4      1  lig       0.049610
      2 C_01          6.5693    0.9057  -22.4484 c5      1  lig      -0.159880
      3 C_02          6.8461   -0.4447  -22.6488 c6      1  lig      -0.252062
      4 C_03          6.2869   -1.4044  -21.8124 c7      1  lig       0.366086
      5 C_04          5.4334   -1.0275  -20.7682 c8      1  lig      -0.197958
      6 C_05          5.1306    0.3321  -20.6073 c9      1  lig      -0.103165
      7 C_06          4.9185   -2.0389  -19.8058 cb      1  lig      -0.160860
      8 C_07          5.7841   -2.9087  -19.1333 ci      1  lig       0.386726
      9 N_08          5.3556   -3.8184  -18.2213 n0      1  lig      -0.714308
     10 C_09          4.0220   -3.8540  -17.9863 cj      1  lig       0.731776
     11 N_0a          3.0936   -3.0712  -18.5913 ng      1  lig      -0.740826
     12 C_0b          3.5602   -2.1703  -19.4992 ck      1  lig       0.431970
     13 F_0c          6.5942   -2.7081  -22.0034 f0      1  lig      -0.189609
     14 C_0d          5.7912    3.7389  -22.3346 cm      1  lig      -0.001391
     15 C_0e          6.9503    4.5296  -22.4325 cn      1  lig      -0.177439
     16 C_0f          7.1638    5.3029  -23.5714 co      1  lig       0.233357
     17 N_0g          6.2904    5.3389  -24.6069 nr      1  lig      -0.471261
     18 C_0h          5.1593    4.5820  -24.5204 cq      1  lig       0.313278
     19 C_0i          4.8848    3.7792  -23.4053 cr      1  lig      -0.158648
     20 C_0j          4.2028    4.6661  -25.7132 cs      1  lig       0.339771
     21 F_0k          4.8317    4.3076  -26.8311 f1      1  lig      -0.127817
     22 F_0l          3.1388    3.8774  -25.5764 f2      1  lig      -0.149421
     23 F_0m          3.7816    5.9233  -25.8527 f3      1  lig      -0.135358
     24 H_0n          7.0535    1.6249  -23.0928 h0      1  lig       0.192812
     25 H_0o          7.5059   -0.7535  -23.4461 h6      1  lig       0.194515
     26 H_0p          4.4955    0.6380  -19.7921 h7      1  lig       0.093993
     27 H_0q          6.8513   -2.8721  -19.3137 h8      1  lig       0.103218
     28 H_0r          3.6745   -4.5675  -17.2476 h9      1  lig       0.030673
     29 H_0s          2.8280   -1.5323  -19.9775 hb      1  lig       0.058812
     30 H_0t          7.6971    4.5521  -21.6550 hd      1  lig       0.121398
     31 H_0u          8.0575    5.9067  -23.6623 he      1  lig       0.110386
     32 H_0v          3.9811    3.1863  -23.3656 hf      1  lig       0.121666
     33 C_0w          8.2360    3.3982  -18.4264 ct      1  lig      -0.136774
     34 C_0x          7.6767    2.9792  -19.6287 cw      1  lig      -0.108377
     35 C_0y          6.3143    3.1716  -19.8741 cA      1  lig      -0.019737
     36 C_0z          5.5106    3.7274  -18.8773 cB      1  lig       0.092735
     37 C_10          6.0663    4.1841  -17.6771 cC      1  lig       0.123664
     38 C_11          7.4413    4.0112  -17.4594 cD      1  lig      -0.154963
     39 O_12          5.2167    4.8032  -16.7890 o0      1  lig      -0.213057
     40 C_13          4.1566    3.6746  -19.3769 cE      1  lig       0.337510
     41 N_14          4.1678    3.1522  -20.5812 nw      1  lig      -0.201490
     42 C_15          5.4986    2.8274  -21.1135 cF      1  lig      -0.025572
     43 N_16          3.0523    4.0354  -18.7855 nA      1  lig      -0.712659
     44 H_17          9.2901    3.2561  -18.2545 hg      1  lig       0.196141
     45 H_18          8.3085    2.5163  -20.3747 hh      1  lig       0.153835
     46 H_19          7.9134    4.3417  -16.5473 hi      1  lig       0.161642
     47 H_1a          2.1485    3.8990  -19.2862 hj      1  lig       0.410526
     48 H_1b          2.9851    4.2931  -17.7948 hk      1  lig       0.410526
     49 H_1c          3.2696    3.1415  -21.1094 hl      1  lig       0.317137
     50 C_1d          5.7010    5.1975  -15.5061 cG      1  lig      -0.219520
     51 H_1e          4.8773    5.6094  -14.9220 hm      1  lig       0.149463
     52 H_1f          6.1013    4.3512  -14.9455 hq      1  lig       0.149463
     53 H_1g          6.4666    5.9708  -15.5822 hr      1  lig       0.149463
@<TRIPOS>BOND
     1    42     1    1
     2     1     6    1
     3     1     2    2
     4     2     3    1
     5     2    24    1
     6     3     4    2
     7     3    25    1
     8     4     5    1
     9     4    13    1
    10     5     6    2
    11     5     7    1
    12     6    26    1
    13     7    12    1
    14     7     8    2
    15     8     9    1
    16     8    27    1
    17     9    10    2
    18    10    28    1
    19    10    11    1
    20    11    12    2
    21    12    29    1
    22    14    15    2
    23    14    19    1
    24    14    42    1
    25    15    30    1
    26    15    16    1
    27    16    17    2
    28    16    31    1
    29    17    18    1
    30    18    19    2
    31    18    20    1
    32    19    32    1
    33    20    22    1
    34    20    21    1
    35    20    23    1
    36    33    44    1
    37    33    38    2
    38    33    34    1
    39    34    35    2
    40    34    45    1
    41    35    36    1
    42    35    42    1
    43    36    37    2
    44    36    40    1
    45    37    38    1
    46    37    39    1
    47    38    46    1
    48    39    50    1
    49    40    43    1
    50    40    41    2
    51    41    42    1
    52    41    49    1
    53    43    48    1
    54    43    47    1
    55    50    51    1
    56    50    52    1
    57    50    53    1
