@<TRIPOS>MOLECULE
lig
  52   56 0 0 0
SMALL
NO_CHARGES


@<TRIPOS>ATOM
      1 C_00          5.6999    1.4086  -21.3955 c4      1  lig       0.050361
      2 C_01          6.5674    0.9951  -22.4204 c5      1  lig      -0.159271
      3 C_02          6.8449   -0.3539  -22.6252 c6      1  lig      -0.254710
      4 C_03          6.2813   -1.3159  -21.7956 c7      1  lig       0.369631
      5 C_04          5.4257   -0.9425  -20.7517 c8      1  lig      -0.194420
      6 C_05          5.1238    0.4177  -20.5839 c9      1  lig      -0.112347
      7 C_06          4.9052   -1.9640  -19.8031 cb      1  lig      -0.162930
      8 C_07          5.7687   -2.8300  -19.1225 ci      1  lig       0.386582
      9 N_08          5.3340   -3.7561  -18.2302 n0      1  lig      -0.712013
     10 C_09          3.9964   -3.8120  -18.0231 cj      1  lig       0.733329
     11 N_0a          3.0703   -3.0337  -18.6374 ng      1  lig      -0.738123
     12 C_0b          3.5429   -2.1170  -19.5263 ck      1  lig       0.430357
     13 F_0c          6.5850   -2.6194  -21.9946 f0      1  lig      -0.187379
     14 C_0d          5.7569    3.8109  -22.3400 cm      1  lig      -0.011750
     15 C_0e          6.9090    4.6101  -22.4585 cn      1  lig      -0.187910
     16 C_0f          7.1097    5.3667  -23.6102 co      1  lig       0.235067
     17 N_0g          6.2305    5.3781  -24.6408 nr      1  lig      -0.460999
     18 C_0h          5.1067    4.6130  -24.5351 cq      1  lig       0.300306
     19 C_0i          4.8444    3.8255  -23.4058 cr      1  lig      -0.137350
     20 C_0j          4.1441    4.6726  -25.7232 cs      1  lig       0.326477
     21 F_0k          4.7775    4.3307  -26.8441 f1      1  lig      -0.121880
     22 F_0l          3.1002    3.8591  -25.5813 f2      1  lig      -0.144835
     23 F_0m          3.6929    5.9193  -25.8585 f3      1  lig      -0.128979
     24 H_0n          7.0525    1.7150  -23.0635 h0      1  lig       0.190665
     25 H_0o          7.5066   -0.6606  -23.4218 h6      1  lig       0.196911
     26 H_0p          4.4835    0.7216  -19.7719 h7      1  lig       0.097794
     27 H_0q          6.8385   -2.7788  -19.2826 h8      1  lig       0.103388
     28 H_0r          3.6435   -4.5400  -17.3012 h9      1  lig       0.032102
     29 H_0s          2.8122   -1.4849  -20.0146 hb      1  lig       0.060155
     30 H_0t          7.6614    4.6519  -21.6871 hd      1  lig       0.125703
     31 H_0u          7.9977    5.9764  -23.7154 he      1  lig       0.112767
     32 H_0v          3.9461    3.2255  -23.3513 hf      1  lig       0.118118
     33 C_0w          8.2921    3.5966  -18.5358 ct      1  lig      -0.106583
     34 C_0x          7.6745    3.0658  -19.6591 cw      1  lig      -0.090222
     35 C_0y          6.3182    3.3056  -19.8898 cA      1  lig       0.018135
     36 C_0z          5.5599    4.0043  -18.9435 cB      1  lig       0.065899
     37 C_10          6.1975    4.6335  -17.8479 cC      1  lig      -0.056871
     38 C_11          7.5683    4.3938  -17.6551 cD      1  lig      -0.098923
     39 C_12          5.5202    5.6404  -16.9111 cE      1  lig       0.455443
     40 C_13          4.1764    3.8575  -19.3880 cF      1  lig       0.380561
     41 N_14          4.1640    3.2454  -20.5509 nw      1  lig      -0.198402
     42 C_15          5.4835    2.9170  -21.1004 cG      1  lig      -0.020226
     43 N_16          3.0652    4.1891  -18.7858 nA      1  lig      -0.752715
     44 H_17          9.3431    3.4215  -18.3741 hg      1  lig       0.187087
     45 H_18          8.2608    2.4940  -20.3656 hh      1  lig       0.158260
     46 H_19          8.0933    4.8371  -16.8192 hi      1  lig       0.175423
     47 H_1a          2.1662    3.9860  -19.2731 hj      1  lig       0.427785
     48 H_1b          2.9756    4.4571  -17.7989 hk      1  lig       0.427785
     49 H_1c          3.2553    3.1913  -21.0614 hl      1  lig       0.313456
     50 F_1d          6.3911    6.5773  -16.5246 f4      1  lig      -0.117004
     51 F_1e          4.5179    6.2831  -17.5051 f5      1  lig      -0.168526
     52 F_1f          5.0946    5.0192  -15.8192 f6      1  lig      -0.155179
@<TRIPOS>BOND
     1    42     1    1
     2     1     6    1
     3     1     2    2
     4     2     3    1
     5     2    24    1
     6     3     4    2
     7     3    25    1
     8     4     5    1
     9     4    13    1
    10     5     6    2
    11     5     7    1
    12     6    26    1
    13     7    12    1
    14     7     8    2
    15     8     9    1
    16     8    27    1
    17     9    10    2
    18    10    28    1
    19    10    11    1
    20    11    12    2
    21    12    29    1
    22    14    15    2
    23    14    19    1
    24    14    42    1
    25    15    30    1
    26    15    16    1
    27    16    17    2
    28    16    31    1
    29    17    18    1
    30    18    19    2
    31    18    20    1
    32    19    32    1
    33    20    22    1
    34    20    21    1
    35    20    23    1
    36    33    44    1
    37    33    38    2
    38    33    34    1
    39    34    35    2
    40    34    45    1
    41    35    36    1
    42    35    42    1
    43    36    37    2
    44    36    40    1
    45    37    38    1
    46    37    39    1
    47    38    46    1
    48    39    50    1
    49    39    51    1
    50    39    52    1
    51    40    43    1
    52    40    41    2
    53    41    42    1
    54    41    49    1
    55    43    48    1
    56    43    47    1
