@<TRIPOS>MOLECULE
TLA
  14   13 0 0 0
SMALL
NO_CHARGES


@<TRIPOS>ATOM
      1 O_00         -1.4680  -14.1430  -34.4560 o0      1  TLA      -0.445765
      2 O_01         -3.6790  -14.3950  -34.6600 o1      1  TLA      -0.435213
      3 C_02         -2.5970  -14.0780  -33.9950 c4      1  TLA       0.859887
      4 C_03         -2.8600  -13.5230  -32.5990 c5      1  TLA      -0.104441
      5 O_04         -1.6450  -13.2330  -31.9310 o2      1  TLA      -0.561538
      6 C_05         -3.7210  -14.4780  -31.7650 c6      1  TLA      -0.022118
      7 O_06         -3.0930  -15.7460  -31.6490 o3      1  TLA      -0.490598
      8 C_07         -4.0160  -13.8800  -30.3910 c7      1  TLA       0.921513
      9 O_08         -3.7500  -14.4790  -29.3550 o4      1  TLA      -0.475847
     10 O_09         -4.5970  -12.6990  -30.4330 o5      1  TLA      -0.460109
     11 H_0a         -3.5010  -12.6440  -32.6710 h0      1  TLA       0.140525
     12 H_0b         -1.8340  -12.8860  -31.0560 h6      1  TLA       0.456646
     13 H_0c         -4.7130  -14.5560  -32.2100 h7      1  TLA       0.160982
     14 H_0d         -2.2870  -15.6580  -31.1350 h8      1  TLA       0.456076
@<TRIPOS>BOND
     1     3     2    1
     2     3     1    1
     3     4     3    1
     4     5     4    1
     5     6     4    1
     6     7     6    1
     7     8     6    1
     8     9     8    1
     9    10     8    1
    10    11     4    1
    11    12     5    1
    12    13     6    1
    13    14     7    1
