@<TRIPOS>MOLECULE
lig
  45   49 0 0 0
SMALL
NO_CHARGES


@<TRIPOS>ATOM
      1 C_00         91.5919   48.3113  266.7137 c4      1  lig       0.059776
      2 C_01         91.9737   49.5382  267.2740 c5      1  lig      -0.200288
      3 C_02         93.2784   49.7908  267.6730 c6      1  lig      -0.109750
      4 C_03         94.2680   48.7772  267.5133 c7      1  lig       0.333573
      5 C_04         93.8795   47.5270  266.9201 c8      1  lig       0.272257
      6 C_05         92.5376   47.3212  266.5200 c9      1  lig      -0.233128
      7 C_06         93.5872   51.0945  268.3284 cb      1  lig       0.069384
      8 C_07         92.9105   51.4581  269.4749 ci      1  lig      -0.168352
      9 C_08         93.2075   52.6695  270.0688 cj      1  lig       0.014884
     10 C_09         94.1599   53.5455  269.4884 ck      1  lig       0.123170
     11 C_0a         94.8806   53.1831  268.3564 cm      1  lig      -0.185925
     12 C_0b         94.5635   51.9339  267.7910 cn      1  lig      -0.257698
     13 N_0c         94.7950   46.5293  266.7603 n0      1  lig      -0.519896
     14 C_0d         96.0527   46.7456  267.1808 co      1  lig       0.226024
     15 C_0e         96.4462   47.9586  267.7463 cq      1  lig       0.025276
     16 N_0f         95.5547   48.9614  267.9316 ng      1  lig      -0.392022
     17 N_0g         90.2589   48.1474  266.3192 nr      1  lig      -0.318588
     18 C_0h         94.1772   54.7621  270.3164 cr      1  lig      -0.336416
     19 C_0i         93.3120   54.5077  271.3434 cs      1  lig      -0.219536
     20 N_0j         92.7370   53.2548  271.2326 nw      1  lig       0.030228
     21 C_0k         91.8268   52.6667  272.1752 ct      1  lig      -0.087001
     22 C_0l         89.6772   47.3563  265.3181 cw      1  lig       0.089787
     23 C_0m         90.3332   47.0353  264.1264 cA      1  lig      -0.093072
     24 C_0n         89.7129   46.1911  263.1996 cB      1  lig      -0.184722
     25 C_0o         88.4539   45.6752  263.4709 cC      1  lig      -0.130694
     26 C_0p         87.7916   45.9887  264.6598 cD      1  lig      -0.165871
     27 C_0q         88.4119   46.8267  265.5812 cE      1  lig      -0.153118
     28 H_0r         91.2132   50.2928  267.4221 h0      1  lig       0.144094
     29 H_0s         92.2566   46.3915  266.0369 h6      1  lig       0.160348
     30 H_0t         92.1423   50.7879  269.9234 h7      1  lig       0.133108
     31 H_0u         95.6232   53.8155  267.9172 h8      1  lig       0.154955
     32 H_0v         95.0955   51.6431  266.8918 h9      1  lig       0.178375
     33 H_0w         96.7693   45.9460  267.0194 hb      1  lig       0.065523
     34 H_0x         97.4666   48.1445  268.0428 hd      1  lig       0.090551
     35 H_0y         89.5994   48.7349  266.8131 he      1  lig       0.294832
     36 H_0z         94.7896   55.6124  270.1980 hf      1  lig       0.192782
     37 H_10         93.0519   55.1114  272.1894 hg      1  lig       0.210813
     38 H_11         90.8903   52.4251  271.6725 hh      1  lig       0.067372
     39 H_12         91.6273   53.3426  273.0207 hi      1  lig       0.067372
     40 H_13         92.2598   51.7480  272.5656 hj      1  lig       0.067372
     41 H_14         91.3238   47.4127  263.9170 hk      1  lig       0.126031
     42 H_15         90.1981   45.9412  262.2667 hl      1  lig       0.151838
     43 H_16         87.9450   45.0518  262.7518 hm      1  lig       0.132430
     44 H_17         86.8041   45.5972  264.8462 hq      1  lig       0.149617
     45 H_18         87.8892   47.0596  266.4896 hr      1  lig       0.124305
@<TRIPOS>BOND
     1     1     2    2
     2     1     6    1
     3     1    17    1
     4     2     3    1
     5     2    28    1
     6     3     4    2
     7     3     7    1
     8     4     5    1
     9     4    16    1
    10     5     6    2
    11     5    13    1
    12     6    29    1
    13     7     8    2
    14     7    12    1
    15     8     9    1
    16     8    30    1
    17     9    10    2
    18     9    20    1
    19    10    11    1
    20    10    18    1
    21    11    12    2
    22    11    31    1
    23    12    32    1
    24    13    14    2
    25    14    15    1
    26    14    33    1
    27    15    16    2
    28    15    34    1
    29    17    22    1
    30    17    35    1
    31    18    19    2
    32    18    36    1
    33    19    20    1
    34    19    37    1
    35    20    21    1
    36    21    38    1
    37    21    39    1
    38    21    40    1
    39    22    23    1
    40    22    27    2
    41    23    24    2
    42    23    41    1
    43    24    25    1
    44    24    42    1
    45    25    26    2
    46    25    43    1
    47    26    27    1
    48    26    44    1
    49    27    45    1
