@<TRIPOS>MOLECULE
lig
  47   50 0 0 0
SMALL
NO_CHARGES


@<TRIPOS>ATOM
      1 C_00         92.5739   47.3336  266.4565 c4      1  lig      -0.240090
      2 C_01         91.6324   48.3172  266.6741 c5      1  lig      -0.025748
      3 C_02         91.9632   49.5168  267.2998 c6      1  lig      -0.179924
      4 C_03         93.2765   49.7975  267.6776 c7      1  lig      -0.084556
      5 C_04         93.8958   47.5362  266.9051 c8      1  lig       0.296510
      6 C_05         94.2730   48.7873  267.5121 c9      1  lig       0.356122
      7 N_06         95.5665   48.9603  267.9405 n0      1  lig      -0.406739
      8 C_07         96.4572   47.9542  267.7463 cb      1  lig       0.038905
      9 C_08         96.0617   46.7355  267.2061 ci      1  lig       0.202110
     10 N_09         94.8014   46.5336  266.7720 ng      1  lig      -0.515307
     11 N_0a         90.2859   48.1283  266.3232 nr      1  lig      -0.221047
     12 C_0b         89.7235   47.3483  265.2931 cj      1  lig      -0.031461
     13 C_0c         90.4123   47.1279  264.0929 ck      1  lig       0.269637
     14 N_0d         89.9113   46.4423  263.0351 nw      1  lig      -0.520581
     15 C_0e         88.6625   45.9485  263.1520 cm      1  lig       0.177222
     16 C_0f         87.8836   46.0962  264.3010 cn      1  lig      -0.211824
     17 C_0g         88.4186   46.7903  265.3979 co      1  lig       0.025120
     18 S_0h         87.4853   46.8968  266.9278 s0      1  lig       0.899812
     19 O_0i         86.1266   46.3735  266.6676 o0      1  lig      -0.521367
     20 O_0j         87.6689   48.2339  267.4731 o1      1  lig      -0.548205
     21 C_0k         88.3809   45.6744  268.0584 cq      1  lig      -0.391015
     22 C_0l         93.5881   51.1129  268.3403 cr      1  lig       0.029352
     23 C_0m         92.8836   51.4776  269.4978 cs      1  lig      -0.112858
     24 C_0n         93.2031   52.6955  270.1335 ct      1  lig      -0.270997
     25 C_0o         94.1885   53.5265  269.6279 cw      1  lig      -0.121215
     26 C_0p         94.8277   53.1962  268.4343 cA      1  lig       0.272532
     27 C_0q         94.5514   51.9702  267.8248 cB      1  lig      -0.236027
     28 O_0r         95.7310   53.9715  267.7910 o2      1  lig      -0.340869
     29 C_0s         96.0567   55.2652  268.3379 cC      1  lig      -0.001528
     30 H_0t         92.2595   46.3832  266.0442 h0      1  lig       0.152653
     31 H_0u         91.2173   50.2889  267.4385 h6      1  lig       0.171733
     32 H_0v         97.4708   48.1510  268.0435 h7      1  lig       0.100845
     33 H_0w         96.7711   45.9434  267.0164 h8      1  lig       0.081046
     34 H_0x         89.5459   48.5927  266.8588 h9      1  lig       0.280012
     35 H_0y         91.4056   47.5266  263.9863 hb      1  lig       0.092371
     36 H_0z         88.2721   45.3859  262.3253 hd      1  lig       0.105930
     37 H_10         86.8893   45.6433  264.3947 he      1  lig       0.160360
     38 H_11         87.8667   45.6399  269.0059 hf      1  lig       0.156336
     39 H_12         89.4103   46.0058  268.1533 hg      1  lig       0.156336
     40 H_13         88.3460   44.7025  267.5724 hh      1  lig       0.156336
     41 H_14         92.1602   50.8128  269.9492 hi      1  lig       0.125117
     42 H_15         92.6820   52.9469  271.0560 hj      1  lig       0.180549
     43 H_16         94.3579   54.4739  270.1171 hk      1  lig       0.121843
     44 H_17         95.0346   51.7174  266.8952 hl      1  lig       0.163592
     45 H_18         96.7832   55.7693  267.6972 hm      1  lig       0.069659
     46 H_19         96.5109   55.1557  269.3242 hq      1  lig       0.069659
     47 H_1a         95.1871   55.9195  268.4266 hr      1  lig       0.069659
@<TRIPOS>BOND
     1     1     2    2
     2     1     5    1
     3     1    30    1
     4     2     3    1
     5     2    11    1
     6     3     4    2
     7     3    31    1
     8     4     6    1
     9     4    22    1
    10     5     6    1
    11     5    10    2
    12     6     7    2
    13     7     8    1
    14     8     9    2
    15     8    32    1
    16     9    10    1
    17     9    33    1
    18    11    12    1
    19    11    34    1
    20    12    13    2
    21    12    17    1
    22    13    14    1
    23    13    35    1
    24    14    15    2
    25    15    16    1
    26    15    36    1
    27    16    17    2
    28    16    37    1
    29    17    18    1
    30    18    19    2
    31    18    20    2
    32    18    21    1
    33    21    38    1
    34    21    39    1
    35    21    40    1
    36    22    23    2
    37    22    27    1
    38    23    24    1
    39    23    41    1
    40    24    25    2
    41    24    42    1
    42    25    26    1
    43    25    43    1
    44    26    27    2
    45    26    28    1
    46    27    44    1
    47    28    29    1
    48    29    45    1
    49    29    46    1
    50    29    47    1
