@<TRIPOS>MOLECULE
lig
  44   48 0 0 0
SMALL
NO_CHARGES


@<TRIPOS>ATOM
      1 N_00         90.2666   48.1240  266.3159 n0      1  lig      -0.435580
      2 C_01         91.6053   48.3302  266.6785 c4      1  lig       0.086369
      3 C_02         91.9655   49.5283  267.2824 c5      1  lig      -0.185215
      4 C_03         93.2798   49.7880  267.6955 c6      1  lig      -0.101708
      5 C_04         94.2675   48.7692  267.5233 c7      1  lig       0.316915
      6 C_05         93.8901   47.5291  266.9246 c8      1  lig       0.287064
      7 C_06         92.5604   47.3362  266.4923 c9      1  lig      -0.245956
      8 C_07         93.5816   51.0865  268.3410 cb      1  lig       0.062931
      9 C_08         94.5539   51.9289  267.7999 ci      1  lig      -0.262971
     10 C_09         94.8419   53.1599  268.3769 cj      1  lig      -0.185181
     11 C_0a         94.1340   53.5695  269.5200 ck      1  lig       0.119917
     12 C_0b         93.1794   52.6828  270.0955 cm      1  lig       0.015896
     13 C_0c         92.8885   51.4503  269.4975 cn      1  lig      -0.168330
     14 C_0d         94.1379   54.7246  270.3295 co      1  lig      -0.332838
     15 C_0e         93.3231   54.5023  271.3969 cq      1  lig      -0.214492
     16 N_0f         92.7270   53.2828  271.2572 ng      1  lig       0.034564
     17 C_0g         91.8143   52.7068  272.2360 cr      1  lig      -0.090455
     18 N_0h         94.7937   46.5216  266.7799 nr      1  lig      -0.521235
     19 C_0i         96.0626   46.7418  267.2021 cs      1  lig       0.226875
     20 C_0j         96.4462   47.9561  267.7601 ct      1  lig       0.022722
     21 N_0k         95.5561   48.9613  267.9464 nw      1  lig      -0.385198
     22 C_0l         89.7286   47.3554  265.2768 cw      1  lig       0.021796
     23 C_0m         90.4324   47.1276  264.0879 cA      1  lig       0.308884
     24 N_0n         89.9168   46.4329  263.0385 nA      1  lig      -0.582337
     25 C_0o         88.6627   45.9292  263.1762 cB      1  lig       0.266849
     26 C_0p         87.8956   46.1024  264.3286 cC      1  lig      -0.323633
     27 C_0q         88.4329   46.8391  265.3862 cD      1  lig      -0.045220
     28 H_0r         89.5840   48.5534  266.9215 h0      1  lig       0.329894
     29 H_0s         91.2103   50.2872  267.4331 h6      1  lig       0.141980
     30 H_0t         92.2824   46.3904  266.0527 h7      1  lig       0.166292
     31 H_0u         95.0948   51.6267  266.9152 h8      1  lig       0.182257
     32 H_0v         95.5936   53.8009  267.9420 h9      1  lig       0.156759
     33 H_0w         92.1679   50.7900  269.9332 hb      1  lig       0.131225
     34 H_0x         94.7495   55.6177  270.1967 hd      1  lig       0.191271
     35 H_0y         93.1003   55.1251  272.2562 he      1  lig       0.207709
     36 H_0z         90.8685   52.4626  271.7679 hf      1  lig       0.067703
     37 H_10         91.6486   53.4244  273.0386 hg      1  lig       0.067703
     38 H_11         92.2600   51.8084  272.6499 hh      1  lig       0.067703
     39 H_12         96.7703   45.9439  267.0454 hi      1  lig       0.068456
     40 H_13         97.4696   48.1484  268.0483 hj      1  lig       0.093088
     41 H_14         91.4251   47.5215  263.9542 hk      1  lig       0.068207
     42 H_15         88.2698   45.3722  262.3401 hl      1  lig       0.076155
     43 H_16         86.9082   45.6692  264.4068 hm      1  lig       0.161394
     44 H_17         87.8553   46.9873  266.2876 hq      1  lig       0.131771
@<TRIPOS>BOND
     1     1     2    1
     2     1    22    1
     3     1    28    1
     4     2     3    1
     5     2     7    2
     6     3     4    2
     7     3    29    1
     8     4     5    1
     9     4     8    1
    10     5    21    2
    11     5     6    1
    12     6     7    1
    13     6    18    2
    14     7    30    1
    15     8     9    2
    16     8    13    1
    17     9    10    1
    18     9    31    1
    19    10    11    2
    20    10    32    1
    21    11    12    1
    22    11    14    1
    23    12    13    2
    24    12    16    1
    25    13    33    1
    26    14    15    2
    27    14    34    1
    28    15    16    1
    29    15    35    1
    30    16    17    1
    31    17    36    1
    32    17    37    1
    33    17    38    1
    34    18    19    1
    35    19    20    2
    36    19    39    1
    37    20    21    1
    38    20    40    1
    39    22    23    2
    40    22    27    1
    41    23    24    1
    42    23    41    1
    43    24    25    2
    44    25    26    1
    45    25    42    1
    46    26    27    2
    47    26    43    1
    48    27    44    1
