@<TRIPOS>MOLECULE
lig
  46   50 0 0 0
SMALL
NO_CHARGES


@<TRIPOS>ATOM
      1 N_00         94.7934   46.5310  266.7559 n0      1  lig      -0.531824
      2 N_01         95.5582   48.9639  267.9334 ng      1  lig      -0.386525
      3 C_02         96.4466   47.9569  267.7437 c4      1  lig       0.029321
      4 C_03         96.0618   46.7455  267.1837 c5      1  lig       0.222540
      5 C_04         94.2697   48.7791  267.5052 c6      1  lig       0.321076
      6 C_05         93.8901   47.5407  266.8989 c7      1  lig       0.341886
      7 C_06         92.5600   47.3451  266.4593 c8      1  lig      -0.282530
      8 C_07         91.6063   48.3396  266.6555 c9      1  lig       0.033061
      9 C_08         91.9699   49.5311  267.2767 cb      1  lig      -0.191151
     10 C_09         93.2841   49.7958  267.6804 ci      1  lig      -0.118075
     11 C_0a         93.5907   51.0925  268.3264 cj      1  lig       0.091767
     12 N_0b         90.2614   48.1538  266.3036 nr      1  lig      -0.217919
     13 C_0c         94.5668   51.9472  267.7977 ck      1  lig      -0.263732
     14 C_0d         94.8663   53.1821  268.3739 cm      1  lig      -0.188373
     15 C_0e         92.8923   51.4433  269.4840 cn      1  lig      -0.186917
     16 C_0f         93.2012   52.6678  270.0771 co      1  lig       0.021924
     17 C_0g         94.1512   53.5677  269.5161 cq      1  lig       0.121921
     18 C_0h         94.1492   54.7274  270.3470 cr      1  lig      -0.334484
     19 C_0i         93.2774   54.4889  271.3839 cs      1  lig      -0.208464
     20 N_0j         92.7265   53.2453  271.2434 nw      1  lig       0.024808
     21 C_0k         91.8100   52.6331  272.1856 ct      1  lig      -0.090189
     22 C_0l         89.6457   47.3771  265.3001 cw      1  lig       0.039396
     23 C_0m         90.3572   47.0310  264.1425 cA      1  lig      -0.098840
     24 C_0n         89.7478   46.3118  263.1147 cB      1  lig      -0.119393
     25 C_0o         88.4149   45.9293  263.2275 cC      1  lig      -0.194331
     26 C_0p         87.6884   46.2695  264.3653 cD      1  lig      -0.143035
     27 C_0q         88.2903   46.9920  265.4020 cE      1  lig       0.006828
     28 C_0r         87.4679   47.3024  266.5683 cF      1  lig       0.289034
     29 N_0s         86.8158   47.5543  267.4897 nA      1  lig      -0.455329
     30 H_0t         97.4675   48.1440  268.0431 h0      1  lig       0.092562
     31 H_0u         96.7682   45.9462  267.0194 h6      1  lig       0.069626
     32 H_0v         92.2766   46.3948  266.0294 h7      1  lig       0.170744
     33 H_0w         91.2125   50.2847  267.4445 h8      1  lig       0.146788
     34 H_0x         89.6053   48.6279  266.9087 h9      1  lig       0.288643
     35 H_0y         95.0978   51.6559  266.8992 hb      1  lig       0.174989
     36 H_0z         95.6195   53.8279  267.9323 hd      1  lig       0.157482
     37 H_10         92.1459   50.7815  269.9121 he      1  lig       0.145201
     38 H_11         94.7662   55.6216  270.2424 hf      1  lig       0.189728
     39 H_12         93.0084   55.0959  272.2349 hg      1  lig       0.208998
     40 H_13         91.6210   53.3091  273.0208 hh      1  lig       0.069569
     41 H_14         92.2505   51.7171  272.5757 hi      1  lig       0.069569
     42 H_15         90.8739   52.3970  271.6835 hj      1  lig       0.069569
     43 H_16         91.3873   47.3281  264.0266 hk      1  lig       0.127241
     44 H_17         90.3077   46.0365  262.2339 hl      1  lig       0.155261
     45 H_18         87.9440   45.3507  262.4475 hm      1  lig       0.152894
     46 H_19         86.6579   45.9419  264.4385 hq      1  lig       0.178685
@<TRIPOS>BOND
     1     1     4    1
     2     1     6    2
     3     2     3    1
     4     2     5    2
     5     3     4    2
     6     3    30    1
     7     4    31    1
     8     5     6    1
     9     5    10    1
    10     6     7    1
    11     7     8    2
    12     7    32    1
    13     8     9    1
    14     8    12    1
    15     9    10    2
    16     9    33    1
    17    10    11    1
    18    11    13    2
    19    11    15    1
    20    12    22    1
    21    12    34    1
    22    13    14    1
    23    13    35    1
    24    14    17    2
    25    14    36    1
    26    15    16    2
    27    15    37    1
    28    16    17    1
    29    16    20    1
    30    17    18    1
    31    18    19    2
    32    18    38    1
    33    19    20    1
    34    19    39    1
    35    20    21    1
    36    21    40    1
    37    21    41    1
    38    21    42    1
    39    22    23    2
    40    22    27    1
    41    23    24    1
    42    23    43    1
    43    24    25    2
    44    24    44    1
    45    25    26    1
    46    25    45    1
    47    26    27    2
    48    26    46    1
    49    27    28    1
    50    28    29    3
