@<TRIPOS>MOLECULE
lig
  49   53 0 0 0
SMALL
NO_CHARGES


@<TRIPOS>ATOM
      1 C_00         92.5604   47.3400  266.4645 c4      1  lig      -0.208991
      2 C_01         91.6033   48.3329  266.6623 c5      1  lig       0.008724
      3 C_02         91.9663   49.5284  267.2832 c6      1  lig      -0.171799
      4 C_03         93.2809   49.8044  267.6816 c7      1  lig      -0.109194
      5 C_04         93.8899   47.5440  266.9028 c8      1  lig       0.265341
      6 C_05         94.2681   48.7863  267.5062 c9      1  lig       0.357689
      7 N_06         95.5594   48.9658  267.9286 n0      1  lig      -0.405385
      8 C_07         96.4477   47.9579  267.7347 cb      1  lig       0.028520
      9 C_08         96.0603   46.7470  267.1752 ci      1  lig       0.208260
     10 N_09         94.7960   46.5358  266.7511 ng      1  lig      -0.517622
     11 C_0a         93.5929   51.1046  268.3258 cj      1  lig       0.047372
     12 N_0b         90.2555   48.1502  266.3103 nr      1  lig      -0.214216
     13 C_0c         94.5796   51.9524  267.7970 ck      1  lig      -0.252330
     14 C_0d         94.8788   53.1903  268.3744 cm      1  lig      -0.180761
     15 C_0e         92.8914   51.4478  269.4799 cn      1  lig      -0.172709
     16 C_0f         93.2168   52.6679  270.0678 co      1  lig       0.014508
     17 C_0g         94.1655   53.5690  269.5124 cq      1  lig       0.114730
     18 C_0h         94.1737   54.7307  270.3540 cr      1  lig      -0.329290
     19 C_0i         93.2736   54.4902  271.3621 cs      1  lig      -0.222739
     20 N_0j         92.7449   53.2407  271.2292 nw      1  lig       0.040571
     21 C_0k         91.8199   52.6411  272.1840 ct      1  lig      -0.088862
     22 C_0l         89.6226   47.3651  265.3242 cw      1  lig       0.032099
     23 C_0m         88.2891   46.8965  265.4752 cA      1  lig      -0.036769
     24 C_0n         87.7104   46.1731  264.4151 cB      1  lig      -0.154584
     25 C_0o         88.4109   45.9091  263.2455 cC      1  lig      -0.186492
     26 C_0p         89.7142   46.3643  263.1048 cD      1  lig      -0.155731
     27 C_0q         90.3116   47.0903  264.1333 cE      1  lig      -0.068545
     28 C_0r         87.4576   47.1549  266.7210 cF      1  lig       0.656463
     29 O_0s         87.7195   48.0491  267.5179 o0      1  lig      -0.560765
     30 N_0t         86.4083   46.3619  266.9362 nA      1  lig      -0.893855
     31 H_0u         92.2719   46.3892  266.0366 h0      1  lig       0.140432
     32 H_0v         91.2102   50.2834  267.4508 h6      1  lig       0.155122
     33 H_0w         97.4642   48.1404  268.0445 h7      1  lig       0.095921
     34 H_0x         96.7697   45.9473  267.0116 h8      1  lig       0.072901
     35 H_0y         89.5894   48.6322  266.9039 h9      1  lig       0.260524
     36 H_0z         95.1034   51.6528  266.8935 hb      1  lig       0.175378
     37 H_10         95.6282   53.8303  267.9247 hd      1  lig       0.153384
     38 H_11         92.1307   50.7998  269.9141 he      1  lig       0.145253
     39 H_12         94.7826   55.6082  270.2355 hf      1  lig       0.188874
     40 H_13         92.9910   55.0873  272.2131 hg      1  lig       0.208100
     41 H_14         91.6021   53.3023  273.0329 hh      1  lig       0.068008
     42 H_15         92.2499   51.7252  272.5857 hi      1  lig       0.068008
     43 H_16         90.8831   52.3860  271.6903 hj      1  lig       0.068008
     44 H_17         86.6936   45.8078  264.4722 hk      1  lig       0.147473
     45 H_18         87.9337   45.3443  262.4572 hl      1  lig       0.148151
     46 H_19         90.2509   46.1545  262.1925 hm      1  lig       0.159597
     47 H_1a         91.3188   47.4451  263.9869 hq      1  lig       0.117798
     48 H_1b         85.8413   46.4915  267.7584 hr      1  lig       0.391715
     49 H_1c         86.1993   45.6153  266.2911 ht      1  lig       0.391715
@<TRIPOS>BOND
     1     1     2    2
     2     1     5    1
     3     1    31    1
     4     2     3    1
     5     2    12    1
     6     3     4    2
     7     3    32    1
     8     4     6    1
     9     4    11    1
    10     5     6    1
    11     5    10    2
    12     6     7    2
    13     7     8    1
    14     8     9    2
    15     8    33    1
    16     9    10    1
    17     9    34    1
    18    11    13    2
    19    11    15    1
    20    12    22    1
    21    12    35    1
    22    13    14    1
    23    13    36    1
    24    14    17    2
    25    14    37    1
    26    15    16    2
    27    15    38    1
    28    16    17    1
    29    16    20    1
    30    17    18    1
    31    18    19    2
    32    18    39    1
    33    19    20    1
    34    19    40    1
    35    20    21    1
    36    21    41    1
    37    21    42    1
    38    21    43    1
    39    22    23    2
    40    22    27    1
    41    23    24    1
    42    23    28    1
    43    24    25    2
    44    24    44    1
    45    25    26    1
    46    25    45    1
    47    26    27    2
    48    26    46    1
    49    27    47    1
    50    28    29    2
    51    28    30    1
    52    30    48    1
    53    30    49    1
