@<TRIPOS>MOLECULE
lig
  51   55 0 0 0
SMALL
NO_CHARGES


@<TRIPOS>ATOM
      1 N_00         90.2429   48.1499  266.3259 n0      1  lig      -0.068475
      2 C_01         91.5915   48.3463  266.6440 c4      1  lig      -0.028810
      3 C_02         91.9574   49.5395  267.2559 c5      1  lig      -0.221964
      4 C_03         93.2671   49.7858  267.6847 c6      1  lig      -0.049812
      5 C_04         94.2480   48.7609  267.5164 c7      1  lig       0.290966
      6 C_05         93.8706   47.5246  266.9023 c8      1  lig       0.341960
      7 C_06         92.5420   47.3500  266.4404 c9      1  lig      -0.269069
      8 C_07         93.5621   51.0725  268.3476 cb      1  lig       0.043152
      9 C_08         94.5377   51.9183  267.8084 ci      1  lig      -0.257771
     10 C_09         94.8189   53.1557  268.3917 cj      1  lig      -0.186790
     11 C_0a         94.1002   53.5562  269.5191 ck      1  lig       0.125300
     12 C_0b         93.1598   52.6544  270.0934 cm      1  lig       0.026711
     13 C_0c         92.8672   51.4224  269.5078 cn      1  lig      -0.176907
     14 C_0d         94.1039   54.7259  270.3250 co      1  lig      -0.339444
     15 C_0e         93.3196   54.4659  271.4136 cq      1  lig      -0.207560
     16 N_0f         92.6997   53.2477  271.2657 ng      1  lig       0.029792
     17 C_0g         91.7777   52.6682  272.2304 cr      1  lig      -0.115949
     18 N_0h         94.7782   46.5125  266.7757 nr      1  lig      -0.522944
     19 C_0i         96.0421   46.7292  267.2110 cs      1  lig       0.204260
     20 C_0j         96.4257   47.9449  267.7634 ct      1  lig       0.030733
     21 N_0k         95.5326   48.9464  267.9520 nw      1  lig      -0.384320
     22 C_0l         89.6492   47.3982  265.3040 cw      1  lig      -0.000303
     23 C_0m         88.4421   46.7054  265.5047 cA      1  lig      -0.023841
     24 C_0n         87.8175   46.0683  264.4281 cB      1  lig      -0.101150
     25 C_0o         88.3808   46.1261  263.1569 cC      1  lig      -0.199971
     26 C_0p         89.5836   46.7997  262.9557 cD      1  lig      -0.124347
     27 C_0q         90.2205   47.4179  264.0292 cE      1  lig      -0.118666
     28 S_0r         87.7197   46.6216  267.1428 s0      1  lig       0.866577
     29 C_0s         88.7306   45.3939  268.1466 cF      1  lig      -0.328265
     30 O_0t         87.9054   47.9440  267.7429 o0      1  lig      -0.541647
     31 O_0u         86.3737   46.0712  266.9700 o1      1  lig      -0.532094
     32 H_0v         89.5840   48.5333  266.9901 h0      1  lig       0.214888
     33 H_0w         91.2097   50.3066  267.4086 h6      1  lig       0.174182
     34 H_0x         92.2450   46.4152  265.9897 h7      1  lig       0.149680
     35 H_0y         95.0846   51.6072  266.9221 h8      1  lig       0.178250
     36 H_0z         95.5694   53.7889  267.9491 h9      1  lig       0.155727
     37 H_10         92.1532   50.7460  269.9468 hb      1  lig       0.136219
     38 H_11         94.7104   55.6146  270.1889 hd      1  lig       0.191814
     39 H_12         93.1476   55.0537  272.3082 he      1  lig       0.207463
     40 H_13         92.2250   51.7647  272.6332 hf      1  lig       0.077635
     41 H_14         90.8371   52.4249  271.7437 hg      1  lig       0.077635
     42 H_15         91.6020   53.3826  273.0374 hh      1  lig       0.077635
     43 H_16         96.7605   45.9327  267.0668 hi      1  lig       0.075999
     44 H_17         97.4448   48.1466  268.0543 hj      1  lig       0.095301
     45 H_18         86.8897   45.5275  264.5487 hk      1  lig       0.166144
     46 H_19         87.8747   45.6506  262.3311 hl      1  lig       0.156443
     47 H_1a         90.0062   46.8648  261.9658 hm      1  lig       0.159160
     48 H_1b         91.1366   47.9651  263.8709 hq      1  lig       0.142568
     49 H_1c         88.2859   45.3378  269.1377 hr      1  lig       0.134635
     50 H_1d         89.7578   45.7535  268.2181 ht      1  lig       0.134635
     51 H_1e         88.7027   44.4150  267.6714 hu      1  lig       0.134635
@<TRIPOS>BOND
     1     1     2    1
     2     1    22    1
     3     1    32    1
     4     2     3    1
     5     2     7    2
     6     3     4    2
     7     3    33    1
     8     4     5    1
     9     4     8    1
    10     5    21    2
    11     5     6    1
    12     6     7    1
    13     6    18    2
    14     7    34    1
    15     8     9    2
    16     8    13    1
    17     9    10    1
    18     9    35    1
    19    10    11    2
    20    10    36    1
    21    11    12    1
    22    11    14    1
    23    12    13    2
    24    12    16    1
    25    13    37    1
    26    14    15    2
    27    14    38    1
    28    15    16    1
    29    15    39    1
    30    16    17    1
    31    17    40    1
    32    17    41    1
    33    17    42    1
    34    18    19    1
    35    19    20    2
    36    19    43    1
    37    20    21    1
    38    20    44    1
    39    22    23    2
    40    22    27    1
    41    23    24    1
    42    23    28    1
    43    24    25    2
    44    24    45    1
    45    25    26    1
    46    25    46    1
    47    26    27    2
    48    26    47    1
    49    27    48    1
    50    28    29    1
    51    28    30    2
    52    28    31    2
    53    29    49    1
    54    29    50    1
    55    29    51    1
