@<TRIPOS>MOLECULE
lig
  48   52 0 0 0
SMALL
NO_CHARGES


@<TRIPOS>ATOM
      1 N_00         90.3246   48.2158  265.9106 n0      1  lig      -0.564003
      2 C_01         91.6410   48.3483  266.3682 c4      1  lig       0.156782
      3 C_02         91.9415   49.5214  267.0589 c5      1  lig      -0.172106
      4 C_03         93.1916   49.7577  267.6267 c6      1  lig      -0.113335
      5 C_04         94.2090   48.7633  267.4940 c7      1  lig       0.301520
      6 C_05         93.8920   47.5406  266.8142 c8      1  lig       0.323961
      7 C_06         92.6020   47.3493  266.2505 c9      1  lig      -0.308375
      8 C_07         93.3887   51.0078  268.4028 cb      1  lig       0.069443
      9 C_08         94.3856   51.9191  268.0632 ci      1  lig      -0.260611
     10 C_09         94.5800   53.0959  268.7844 cj      1  lig      -0.193137
     11 C_0a         93.7588   53.3624  269.8875 ck      1  lig       0.121482
     12 C_0b         92.7502   52.4132  270.2359 cm      1  lig       0.014919
     13 C_0c         92.5445   51.2472  269.4912 cn      1  lig      -0.171462
     14 C_0d         93.6590   54.4296  270.8315 co      1  lig      -0.327512
     15 C_0e         92.6607   54.0993  271.7192 cq      1  lig      -0.225551
     16 N_0f         92.1109   52.8876  271.3697 ng      1  lig       0.039406
     17 N_0g         94.8307   46.5542  266.6953 nr      1  lig      -0.526719
     18 C_0h         96.0576   46.7723  267.2282 cr      1  lig       0.215567
     19 C_0i         96.3687   47.9683  267.8707 cs      1  lig       0.021705
     20 N_0j         95.4525   48.9489  268.0267 nw      1  lig      -0.386265
     21 C_0k         91.0015   52.2516  272.0349 ct      1  lig      -0.075751
     22 C_0l         89.6285   47.2718  265.1312 cw      1  lig      -0.025631
     23 C_0m         90.0658   46.7271  263.9099 cA      1  lig       0.655976
     24 N_0n         89.2897   45.8581  263.1888 nA      1  lig      -0.532257
     25 C_0o         88.0679   45.5254  263.6665 cB      1  lig       0.142283
     26 C_0p         87.5646   46.0381  264.8536 cC      1  lig      -0.354172
     27 C_0q         88.3537   46.9259  265.5834 cD      1  lig      -0.031783
     28 O_0r         91.2814   47.0908  263.3524 o0      1  lig      -0.346124
     29 C_0s         91.5717   46.7276  261.9951 cE      1  lig      -0.029025
     30 H_0t         89.7054   48.8989  266.3314 h0      1  lig       0.368539
     31 H_0u         91.1742   50.2745  267.1733 h6      1  lig       0.139741
     32 H_0v         92.3704   46.4313  265.7346 h7      1  lig       0.193559
     33 H_0w         95.0268   51.7132  267.2178 h8      1  lig       0.184375
     34 H_0x         95.3510   53.7912  268.4891 h9      1  lig       0.156865
     35 H_0y         91.7728   50.5401  269.7642 hb      1  lig       0.126462
     36 H_0z         94.2567   55.3288  270.8709 hd      1  lig       0.189456
     37 H_10         92.2753   54.6395  272.5720 he      1  lig       0.209569
     38 H_11         96.7837   45.9839  267.1326 hf      1  lig       0.068655
     39 H_12         97.3426   48.1426  268.2967 hg      1  lig       0.091206
     40 H_13         91.2213   51.1967  272.1960 hh      1  lig       0.062741
     41 H_14         90.0975   52.3505  271.4345 hi      1  lig       0.062741
     42 H_15         90.8589   52.7256  273.0100 hj      1  lig       0.062741
     43 H_16         87.4937   44.8108  263.0830 hk      1  lig       0.116629
     44 H_17         86.5893   45.7382  265.2184 hl      1  lig       0.170918
     45 H_18         87.9673   47.3300  266.5091 hm      1  lig       0.151560
     46 H_19         92.5406   47.1233  261.6761 hq      1  lig       0.075006
     47 H_1a         90.8369   47.1301  261.2988 hr      1  lig       0.075006
     48 H_1b         91.5927   45.6483  261.8513 ht      1  lig       0.075006
@<TRIPOS>BOND
     1     1     2    1
     2     1    22    1
     3     1    30    1
     4     2     3    2
     5     2     7    1
     6     3     4    1
     7     3    31    1
     8     4     5    2
     9     4     8    1
    10     5    20    1
    11     5     6    1
    12     6     7    2
    13     6    17    1
    14     7    32    1
    15     8     9    2
    16     8    13    1
    17     9    10    1
    18     9    33    1
    19    10    11    2
    20    10    34    1
    21    11    14    1
    22    11    12    1
    23    12    13    2
    24    12    16    1
    25    13    35    1
    26    14    15    2
    27    14    36    1
    28    15    16    1
    29    15    37    1
    30    16    21    1
    31    17    18    2
    32    18    19    1
    33    18    38    1
    34    19    20    2
    35    19    39    1
    36    21    40    1
    37    21    41    1
    38    21    42    1
    39    22    23    1
    40    22    27    2
    41    23    24    2
    42    23    28    1
    43    24    25    1
    44    25    26    2
    45    25    43    1
    46    26    27    1
    47    26    44    1
    48    27    45    1
    49    28    29    1
    50    29    46    1
    51    29    47    1
    52    29    48    1
