@<TRIPOS>MOLECULE
lig
  48   52 0 0 0
SMALL
NO_CHARGES


@<TRIPOS>ATOM
      1 N_00         90.2734   48.1373  266.3119 n0      1  lig      -0.384826
      2 C_01         91.6117   48.3398  266.6726 c4      1  lig       0.098953
      3 C_02         91.9712   49.5358  267.2869 c5      1  lig      -0.164675
      4 C_03         93.2859   49.8045  267.6861 c6      1  lig      -0.164840
      5 C_04         92.5671   47.3483  266.4685 c7      1  lig      -0.305756
      6 C_05         93.8944   47.5452  266.9039 c8      1  lig       0.315994
      7 C_06         94.2720   48.7853  267.5093 c9      1  lig       0.357272
      8 N_07         95.5613   48.9672  267.9330 ng      1  lig      -0.396631
      9 C_08         96.4474   47.9577  267.7413 cb      1  lig       0.020739
     10 C_09         96.0603   46.7471  267.1804 ci      1  lig       0.219520
     11 N_0a         94.7948   46.5347  266.7539 nr      1  lig      -0.526944
     12 C_0b         93.5898   51.1081  268.3324 cj      1  lig       0.094880
     13 C_0c         94.5658   51.9591  267.8021 ck      1  lig      -0.268414
     14 C_0d         94.8582   53.1934  268.3840 cm      1  lig      -0.184487
     15 C_0e         92.8861   51.4597  269.4865 cn      1  lig      -0.178193
     16 N_0f         92.7260   53.2479  271.2608 nw      1  lig       0.035080
     17 C_0g         93.1982   52.6767  270.0937 co      1  lig       0.006776
     18 C_0h         94.1524   53.5738  269.5353 cq      1  lig       0.124755
     19 C_0i         94.1575   54.7293  270.3755 cr      1  lig      -0.334794
     20 C_0j         93.3428   54.4594  271.4429 cs      1  lig      -0.215159
     21 C_0k         91.7409   52.6665  272.1542 ct      1  lig      -0.084206
     22 C_0l         90.4241   47.1199  264.0974 cw      1  lig       0.217175
     23 C_0m         89.7187   47.3508  265.2862 cA      1  lig      -0.008621
     24 C_0n         88.4205   46.8190  265.4083 cB      1  lig       0.286912
     25 C_0o         87.8923   46.0966  264.3222 cC      1  lig      -0.319190
     26 C_0p         88.6643   45.9320  263.1722 cD      1  lig       0.178325
     27 N_0q         89.9182   46.4295  263.0460 nA      1  lig      -0.552533
     28 O_0r         87.7289   47.0297  266.5905 o0      1  lig      -0.265261
     29 C_0s         86.6417   46.1641  266.9159 cE      1  lig      -0.096492
     30 H_0t         89.5868   48.6125  266.8810 h0      1  lig       0.287303
     31 H_0u         91.2113   50.2874  267.4491 h6      1  lig       0.148189
     32 H_0v         92.2845   46.4012  266.0294 h7      1  lig       0.179844
     33 H_0w         97.4673   48.1422  268.0436 h8      1  lig       0.092679
     34 H_0x         96.7683   45.9465  267.0190 h9      1  lig       0.068693
     35 H_0y         95.0959   51.6639  266.9069 hb      1  lig       0.179809
     36 H_0z         95.6099   53.8355  267.9427 hd      1  lig       0.156935
     37 H_10         92.1435   50.7994  269.9124 he      1  lig       0.137503
     38 H_11         94.7478   55.6229  270.2556 hf      1  lig       0.190346
     39 H_12         93.1309   55.0547  272.3177 hg      1  lig       0.207006
     40 H_13         92.1012   51.7055  272.5204 hh      1  lig       0.066620
     41 H_14         90.8126   52.5158  271.6044 hi      1  lig       0.066620
     42 H_15         91.5524   53.3252  273.0018 hj      1  lig       0.066620
     43 H_16         91.4231   47.5030  263.9698 hk      1  lig       0.101129
     44 H_17         86.9039   45.6606  264.3509 hl      1  lig       0.143684
     45 H_18         88.2760   45.3830  262.3272 hm      1  lig       0.108396
     46 H_19         86.2357   46.4597  267.8831 hq      1  lig       0.097755
     47 H_1a         86.9586   45.1221  266.9987 hr      1  lig       0.097755
     48 H_1b         85.8268   46.2288  266.1940 ht      1  lig       0.097755
@<TRIPOS>BOND
     1     1     2    1
     2     1    23    1
     3     1    30    1
     4     2     3    2
     5     2     5    1
     6     3     4    1
     7     3    31    1
     8     4     7    2
     9     4    12    1
    10     5     6    2
    11     5    32    1
    12     6     7    1
    13     6    11    1
    14     7     8    1
    15     8     9    2
    16     9    10    1
    17     9    33    1
    18    10    11    2
    19    10    34    1
    20    12    13    2
    21    12    15    1
    22    13    14    1
    23    13    35    1
    24    14    18    2
    25    14    36    1
    26    15    17    2
    27    15    37    1
    28    16    17    1
    29    16    20    1
    30    16    21    1
    31    17    18    1
    32    18    19    1
    33    19    20    2
    34    19    38    1
    35    20    39    1
    36    21    40    1
    37    21    41    1
    38    21    42    1
    39    22    23    2
    40    22    27    1
    41    22    43    1
    42    23    24    1
    43    24    25    2
    44    24    28    1
    45    25    26    1
    46    25    44    1
    47    26    27    2
    48    26    45    1
    49    28    29    1
    50    29    46    1
    51    29    47    1
    52    29    48    1
