@<TRIPOS>MOLECULE
lig
  45   49 0 0 0
SMALL
NO_CHARGES


@<TRIPOS>ATOM
      1 N_00         90.2783   48.1451  266.3142 n0      1  lig      -0.351802
      2 C_01         91.6169   48.3446  266.6738 c4      1  lig       0.025739
      3 C_02         91.9745   49.5378  267.2907 c5      1  lig      -0.168035
      4 C_03         93.2869   49.8041  267.6905 c6      1  lig      -0.092593
      5 C_04         94.2733   48.7861  267.5115 c7      1  lig       0.310533
      6 C_05         93.8958   47.5470  266.9048 c8      1  lig       0.296205
      7 C_06         92.5700   47.3545  266.4704 c9      1  lig      -0.221719
      8 C_07         93.5906   51.1033  268.3373 cb      1  lig       0.058022
      9 C_08         94.5701   51.9485  267.7930 ci      1  lig      -0.266007
     10 C_09         94.8766   53.1828  268.3625 cj      1  lig      -0.181910
     11 C_0a         94.1744   53.5766  269.5033 ck      1  lig       0.122464
     12 C_0b         93.2113   52.6777  270.0810 cm      1  lig       0.017303
     13 C_0c         92.8959   51.4563  269.4914 cn      1  lig      -0.171774
     14 C_0d         94.1946   54.7419  270.3240 co      1  lig      -0.332891
     15 C_0e         93.3205   54.5041  271.3412 cq      1  lig      -0.210504
     16 N_0f         92.7610   53.2794  271.2415 ng      1  lig       0.032676
     17 N_0g         94.7935   46.5354  266.7547 nr      1  lig      -0.520442
     18 C_0h         96.0594   46.7465  267.1790 cr      1  lig       0.224654
     19 C_0i         96.4464   47.9594  267.7361 cs      1  lig       0.030983
     20 N_0j         95.5618   48.9678  267.9325 nw      1  lig      -0.380639
     21 C_0k         91.8513   52.7306  272.2454 ct      1  lig      -0.090932
     22 C_0l         89.7124   47.3504  265.2983 cw      1  lig       0.024004
     23 C_0m         88.4077   46.8215  265.3936 cA      1  lig       0.044494
     24 C_0n         87.8831   46.1009  264.3157 cB      1  lig      -0.259965
     25 C_0o         88.6642   45.9359  263.1759 cC      1  lig       0.167683
     26 N_0p         89.9193   46.4305  263.0542 nA      1  lig      -0.520250
     27 C_0q         90.4194   47.1175  264.1115 cD      1  lig       0.296640
     28 C_0r         87.5851   46.9636  266.5914 cE      1  lig       0.322690
     29 N_0s         86.9354   47.0770  267.5414 nB      1  lig      -0.444388
     30 H_0t         89.6015   48.6327  266.8831 h0      1  lig       0.328034
     31 H_0u         91.2174   50.2910  267.4543 h6      1  lig       0.143106
     32 H_0v         92.2810   46.4076  266.0446 h7      1  lig       0.159693
     33 H_0w         95.0908   51.6545  266.8941 h8      1  lig       0.180777
     34 H_0x         95.6296   53.8262  267.9201 h9      1  lig       0.156056
     35 H_0y         92.1406   50.8044  269.9242 hb      1  lig       0.139668
     36 H_0z         94.7923   55.6373  270.2448 hd      1  lig       0.190311
     37 H_10         93.0701   55.1130  272.1869 he      1  lig       0.208220
     38 H_11         96.7637   45.9455  267.0078 hf      1  lig       0.071613
     39 H_12         97.4654   48.1560  268.0273 hg      1  lig       0.095094
     40 H_13         91.7086   53.4652  273.0442 hh      1  lig       0.069131
     41 H_14         92.2994   51.8408  272.6822 hi      1  lig       0.069131
     42 H_15         90.8902   52.5152  271.7871 hj      1  lig       0.069131
     43 H_16         86.8922   45.6690  264.3571 hk      1  lig       0.180846
     44 H_17         88.2724   45.3817  262.3429 hl      1  lig       0.107865
     45 H_18         91.4167   47.4986  263.9885 hm      1  lig       0.071085
@<TRIPOS>BOND
     1     1     2    1
     2     1    22    1
     3     1    30    1
     4     2     3    2
     5     2     7    1
     6     3     4    1
     7     3    31    1
     8     4     5    2
     9     4     8    1
    10     5    20    1
    11     5     6    1
    12     6     7    2
    13     6    17    1
    14     7    32    1
    15     8     9    2
    16     8    13    1
    17     9    10    1
    18     9    33    1
    19    10    11    2
    20    10    34    1
    21    11    14    1
    22    11    12    1
    23    12    13    2
    24    12    16    1
    25    13    35    1
    26    14    15    2
    27    14    36    1
    28    15    16    1
    29    15    37    1
    30    16    21    1
    31    17    18    2
    32    18    19    1
    33    18    38    1
    34    19    20    2
    35    19    39    1
    36    21    40    1
    37    21    41    1
    38    21    42    1
    39    22    23    1
    40    22    27    2
    41    23    24    2
    42    23    28    1
    43    24    25    1
    44    24    43    1
    45    25    26    2
    46    25    44    1
    47    26    27    1
    48    27    45    1
    49    28    29    3
