@<TRIPOS>MOLECULE
lig
  48   52 0 0 0
SMALL
NO_CHARGES


@<TRIPOS>ATOM
      1 C_00         92.5675   47.3476  266.4818 c4      1  lig      -0.285404
      2 C_01         91.6195   48.3446  266.6702 c5      1  lig       0.047468
      3 C_02         91.9774   49.5404  267.2822 c6      1  lig      -0.140191
      4 C_03         93.2882   49.8046  267.6879 c7      1  lig      -0.176758
      5 C_04         94.2739   48.7854  267.5113 c8      1  lig       0.353230
      6 C_05         93.8948   47.5437  266.9102 c9      1  lig       0.322563
      7 N_06         94.7936   46.5330  266.7587 n0      1  lig      -0.525279
      8 N_07         95.5623   48.9682  267.9318 ng      1  lig      -0.396850
      9 C_08         96.4466   47.9594  267.7367 cb      1  lig       0.028954
     10 C_09         96.0613   46.7461  267.1800 ci      1  lig       0.217572
     11 N_0a         90.2825   48.1494  266.3000 nr      1  lig      -0.307721
     12 C_0b         93.5910   51.1031  268.3371 cj      1  lig       0.112322
     13 C_0c         94.5701   51.9487  267.7934 ck      1  lig      -0.273609
     14 C_0d         94.8764   53.1831  268.3626 cm      1  lig      -0.190634
     15 C_0e         94.1738   53.5765  269.5033 cn      1  lig       0.128268
     16 C_0f         93.2106   52.6774  270.0808 co      1  lig       0.010876
     17 C_0g         92.8955   51.4555  269.4914 cq      1  lig      -0.185925
     18 C_0h         94.1940   54.7417  270.3236 cr      1  lig      -0.334008
     19 C_0i         93.3211   54.5038  271.3418 cs      1  lig      -0.212685
     20 N_0j         92.7601   53.2789  271.2412 nw      1  lig       0.032516
     21 C_0k         89.7058   47.3516  265.2944 ct      1  lig       0.002846
     22 C_0l         91.8506   52.7297  272.2448 cw      1  lig      -0.100162
     23 C_0m         88.4003   46.8132  265.3997 cA      1  lig       0.014712
     24 C_0n         87.8903   46.1026  264.3004 cB      1  lig      -0.280358
     25 C_0o         88.6717   45.9405  263.1626 cC      1  lig       0.185671
     26 N_0p         89.9225   46.4384  263.0456 nA      1  lig      -0.532082
     27 C_0q         90.4118   47.1270  264.1049 cD      1  lig       0.289407
     28 C_0r         87.5461   46.9593  266.6443 cE      1  lig       0.662020
     29 N_0s         86.6807   45.9742  266.8909 nB      1  lig      -0.870257
     30 O_0t         87.6482   47.9220  267.4000 o0      1  lig      -0.564425
     31 H_0u         92.2748   46.4011  266.0567 h0      1  lig       0.166342
     32 H_0v         91.2199   50.2936  267.4430 h6      1  lig       0.142059
     33 H_0w         97.4656   48.1565  268.0267 h7      1  lig       0.092222
     34 H_0x         96.7640   45.9455  267.0078 h8      1  lig       0.068744
     35 H_0y         89.5926   48.5988  266.8874 h9      1  lig       0.303392
     36 H_0z         95.0905   51.6544  266.8946 hb      1  lig       0.180149
     37 H_10         95.6297   53.8262  267.9199 hd      1  lig       0.157972
     38 H_11         92.1403   50.8031  269.9237 he      1  lig       0.145756
     39 H_12         94.7911   55.6375  270.2450 hf      1  lig       0.188437
     40 H_13         93.0724   55.1133  272.1872 hg      1  lig       0.207236
     41 H_14         91.7082   53.4641  273.0433 hh      1  lig       0.071809
     42 H_15         92.2985   51.8398  272.6819 hi      1  lig       0.071809
     43 H_16         90.8892   52.5140  271.7869 hj      1  lig       0.071809
     44 H_17         86.8976   45.6795  264.3121 hk      1  lig       0.147523
     45 H_18         88.2724   45.3933  262.3292 hl      1  lig       0.097027
     46 H_19         91.4048   47.5141  263.9802 hm      1  lig       0.073641
     47 H_1a         86.0899   46.0225  267.7060 hq      1  lig       0.390998
     48 H_1b         86.6017   45.1896  266.2549 hr      1  lig       0.390998
@<TRIPOS>BOND
     1     1     2    1
     2     1     6    2
     3     1    31    1
     4     2     3    2
     5     2    11    1
     6     3     4    1
     7     3    32    1
     8     4     5    2
     9     4    12    1
    10     5     6    1
    11     5     8    1
    12     6     7    1
    13     7    10    2
    14     8     9    2
    15     9    10    1
    16     9    33    1
    17    10    34    1
    18    11    21    1
    19    11    35    1
    20    12    13    2
    21    12    17    1
    22    13    14    1
    23    13    36    1
    24    14    15    2
    25    14    37    1
    26    15    18    1
    27    15    16    1
    28    16    17    2
    29    16    20    1
    30    17    38    1
    31    18    19    2
    32    18    39    1
    33    19    20    1
    34    19    40    1
    35    20    22    1
    36    21    27    1
    37    21    23    2
    38    22    41    1
    39    22    42    1
    40    22    43    1
    41    23    24    1
    42    23    28    1
    43    24    25    2
    44    24    44    1
    45    25    26    1
    46    25    45    1
    47    26    27    2
    48    27    46    1
    49    28    29    1
    50    28    30    2
    51    29    47    1
    52    29    48    1
