@<TRIPOS>MOLECULE
lig
  50   54 0 0 0
SMALL
NO_CHARGES


@<TRIPOS>ATOM
      1 C_00         91.6086   48.3265  266.6693 c4      1  lig      -0.008597
      2 C_01         91.9732   49.5289  267.2740 c5      1  lig      -0.182846
      3 C_02         93.2849   49.7831  267.6765 c6      1  lig      -0.087118
      4 C_03         94.2756   48.7716  267.5148 c7      1  lig       0.302267
      5 C_04         93.8941   47.5269  266.9163 c8      1  lig       0.341292
      6 C_05         92.5664   47.3356  266.4869 c9      1  lig      -0.280914
      7 C_06         93.5944   51.0830  268.3283 cb      1  lig       0.055631
      8 C_07         92.9019   51.4420  269.4800 ci      1  lig      -0.173532
      9 C_08         93.1886   52.6739  270.0653 cj      1  lig       0.025176
     10 C_09         94.1369   53.5702  269.4983 ck      1  lig       0.132239
     11 C_0a         94.8396   53.1647  268.3583 cm      1  lig      -0.188252
     12 C_0b         94.5632   51.9211  267.7840 cn      1  lig      -0.258393
     13 N_0c         94.8011   46.5237  266.7692 n0      1  lig      -0.520290
     14 C_0d         96.0655   46.7425  267.1959 co      1  lig       0.211055
     15 C_0e         96.4524   47.9539  267.7595 cq      1  lig       0.034842
     16 N_0f         95.5606   48.9571  267.9440 ng      1  lig      -0.386295
     17 N_0g         90.2742   48.1229  266.3119 nr      1  lig      -0.210272
     18 C_0h         94.1551   54.7196  270.3381 cr      1  lig      -0.350027
     19 C_0i         93.2925   54.4888  271.3906 cs      1  lig      -0.203736
     20 N_0j         92.7216   53.2581  271.2260 nw      1  lig       0.025427
     21 C_0k         91.8085   52.6518  272.1779 ct      1  lig      -0.117309
     22 C_0l         89.7147   47.3400  265.2872 cw      1  lig      -0.023039
     23 C_0m         88.4272   46.7998  265.4019 cA      1  lig       0.024951
     24 C_0n         87.8901   46.0853  264.3199 cB      1  lig      -0.219546
     25 C_0o         88.6593   45.9358  263.1678 cC      1  lig       0.181676
     26 N_0p         89.9101   46.4426  263.0385 nA      1  lig      -0.519523
     27 C_0q         90.4183   47.1199  264.0947 cD      1  lig       0.265143
     28 S_0r         87.4704   46.8899  266.9209 s0      1  lig       0.890850
     29 O_0s         86.1418   46.3963  266.6721 o0      1  lig      -0.521167
     30 O_0t         87.6670   48.2589  267.4823 o1      1  lig      -0.547566
     31 C_0u         88.3758   45.6752  268.0371 cE      1  lig      -0.366487
     32 H_0v         91.2142   50.2817  267.4378 h0      1  lig       0.162974
     33 H_0w         92.2918   46.3918  266.0429 h6      1  lig       0.158747
     34 H_0x         92.1734   50.7821  269.9163 h7      1  lig       0.133683
     35 H_0y         95.5918   53.7986  267.9326 h8      1  lig       0.156004
     36 H_0z         95.1026   51.6249  266.8951 h9      1  lig       0.180218
     37 H_10         96.7742   45.9445  267.0407 hb      1  lig       0.074078
     38 H_11         97.4746   48.1476  268.0493 hd      1  lig       0.094639
     39 H_12         89.5809   48.6035  266.8760 he      1  lig       0.271860
     40 H_13         94.7866   55.6032  270.1906 hf      1  lig       0.196102
     41 H_14         93.0402   55.0710  272.2767 hg      1  lig       0.208661
     42 H_15         90.8575   52.4402  271.6717 hh      1  lig       0.078361
     43 H_16         91.6483   53.3577  272.9998 hi      1  lig       0.078361
     44 H_17         92.2609   51.7273  272.5708 hj      1  lig       0.078361
     45 H_18         86.9053   45.6446  264.3755 hk      1  lig       0.162913
     46 H_19         88.2754   45.3851  262.3251 hl      1  lig       0.102870
     47 H_1a         91.4087   47.5286  263.9693 hm      1  lig       0.090524
     48 H_1b         87.8581   45.6244  268.9917 hq      1  lig       0.148668
     49 H_1c         89.3988   46.0130  268.1794 hr      1  lig       0.148668
     50 H_1d         88.3595   44.6958  267.5571 ht      1  lig       0.148668
@<TRIPOS>BOND
     1     1     2    2
     2     1     6    1
     3     1    17    1
     4     2     3    1
     5     2    32    1
     6     3     4    2
     7     3     7    1
     8     4     5    1
     9     4    16    1
    10     5     6    2
    11     5    13    1
    12     6    33    1
    13     7     8    2
    14     7    12    1
    15     8     9    1
    16     8    34    1
    17     9    10    2
    18     9    20    1
    19    10    11    1
    20    10    18    1
    21    11    12    2
    22    11    35    1
    23    12    36    1
    24    13    14    2
    25    14    15    1
    26    14    37    1
    27    15    16    2
    28    15    38    1
    29    17    22    1
    30    17    39    1
    31    18    19    2
    32    18    40    1
    33    19    20    1
    34    19    41    1
    35    20    21    1
    36    21    42    1
    37    21    43    1
    38    21    44    1
    39    22    23    1
    40    22    27    2
    41    23    24    2
    42    23    28    1
    43    24    25    1
    44    24    45    1
    45    25    26    2
    46    25    46    1
    47    26    27    1
    48    27    47    1
    49    28    29    2
    50    28    30    2
    51    28    31    1
    52    31    48    1
    53    31    49    1
    54    31    50    1
