@<TRIPOS>MOLECULE
lig
  53   57 0 0 0
SMALL
NO_CHARGES


@<TRIPOS>ATOM
      1 C_00         92.5019   47.4809  266.5012 c4      1  lig      -0.376715
      2 C_01         91.4857   48.4054  266.7703 c5      1  lig      -0.014544
      3 C_02         91.8311   49.6033  267.4005 c6      1  lig      -0.122875
      4 C_03         93.1329   49.9008  267.8027 c7      1  lig      -0.103342
      5 C_04         93.8203   47.7090  266.9243 c8      1  lig       0.380630
      6 C_05         94.1662   48.9379  267.5838 c9      1  lig       0.308126
      7 N_06         95.4395   49.1394  268.0247 n0      1  lig      -0.394997
      8 C_07         96.3424   48.1461  267.8444 cb      1  lig       0.030848
      9 C_08         96.0073   46.9541  267.2235 ci      1  lig       0.192096
     10 N_09         94.7573   46.7424  266.7458 ng      1  lig      -0.523345
     11 C_0a         93.3550   51.1745  268.5297 cj      1  lig       0.041927
     12 C_0b         94.3019   52.0919  268.1026 ck      1  lig      -0.272076
     13 C_0c         94.5054   53.3019  268.7680 cm      1  lig      -0.163171
     14 C_0d         92.5738   51.4295  269.6693 cn      1  lig      -0.148520
     15 C_0e         92.8404   52.5915  270.3967 co      1  lig       0.016971
     16 C_0f         93.7750   53.5611  269.9435 cq      1  lig       0.104358
     17 C_0g         93.7328   54.6344  270.8820 cr      1  lig      -0.327165
     18 C_0h         92.9093   54.2418  271.9260 cs      1  lig      -0.214121
     19 N_0i         92.3458   53.0191  271.6075 nr      1  lig       0.033918
     20 N_0j         90.1525   48.0937  266.3996 nw      1  lig      -0.047924
     21 C_0k         91.3984   52.2974  272.4351 ct      1  lig      -0.099948
     22 C_0l         89.8025   47.1713  265.4107 cw      1  lig       0.035229
     23 C_0m         88.7064   46.2853  265.4708 cA      1  lig       0.099301
     24 C_0n         88.3920   45.5465  264.3239 cB      1  lig      -0.297499
     25 C_0o         89.1630   45.7166  263.1759 cC      1  lig       0.248417
     26 N_0p         90.3008   46.4328  263.1436 nA      1  lig      -0.541227
     27 C_0q         90.6083   47.1291  264.2614 cD      1  lig       0.233759
     28 S_0r         87.7536   46.0522  266.9862 s0      1  lig       0.900078
     29 O_0s         87.6334   47.3703  267.6019 o0      1  lig      -0.544147
     30 O_0t         86.5414   45.3174  266.6269 o1      1  lig      -0.545453
     31 C_0u         88.7842   44.9495  268.1463 cE      1  lig      -0.262885
     32 C_0v         89.0277   48.5933  267.1930 cF      1  lig      -0.328605
     33 H_0w         92.2739   46.5354  266.0341 h0      1  lig       0.170298
     34 H_0x         91.0802   50.3370  267.6197 h6      1  lig       0.138669
     35 H_0y         97.3500   48.3260  268.1900 h7      1  lig       0.100552
     36 H_0z         96.7164   46.1616  267.0807 h8      1  lig       0.083890
     37 H_10         94.8847   51.8876  267.2116 h9      1  lig       0.182578
     38 H_11         95.2293   54.0106  268.4023 hb      1  lig       0.153249
     39 H_12         91.8324   50.7201  269.9931 hd      1  lig       0.120660
     40 H_13         94.2804   55.5661  270.8313 he      1  lig       0.190225
     41 H_14         92.6568   54.7230  272.8364 hf      1  lig       0.209091
     42 H_15         91.2584   52.7970  273.3926 hg      1  lig       0.073685
     43 H_16         91.7765   51.2904  272.6187 hh      1  lig       0.073685
     44 H_17         90.4452   52.2301  271.9110 hi      1  lig       0.073685
     45 H_18         87.6107   44.8283  264.3234 hj      1  lig       0.178387
     46 H_19         88.8449   45.2396  262.2594 hk      1  lig       0.100484
     47 H_1a         91.4889   47.7368  264.2338 hl      1  lig       0.101801
     48 H_1b         88.2085   44.8033  269.0647 hm      1  lig       0.119506
     49 H_1c         89.7347   45.4322  268.3765 hq      1  lig       0.119506
     50 H_1d         88.9505   43.9840  267.6632 hr      1  lig       0.119506
     51 H_1e         88.8013   47.8870  268.0013 ht      1  lig       0.131148
     52 H_1f         88.1379   48.7100  266.5759 hu      1  lig       0.131148
     53 H_1g         89.2234   49.5809  267.6275 hv      1  lig       0.131148
@<TRIPOS>BOND
     1     1     2    2
     2     1     5    1
     3     1    33    1
     4     2     3    1
     5     2    20    1
     6     3     4    2
     7     3    34    1
     8     4     6    1
     9     4    11    1
    10     5     6    1
    11     5    10    2
    12     6     7    2
    13     7     8    1
    14     8     9    2
    15     8    35    1
    16     9    10    1
    17     9    36    1
    18    11    12    2
    19    11    14    1
    20    12    13    1
    21    12    37    1
    22    13    16    2
    23    13    38    1
    24    14    15    2
    25    14    39    1
    26    15    16    1
    27    15    19    1
    28    16    17    1
    29    17    18    2
    30    17    40    1
    31    18    19    1
    32    18    41    1
    33    19    21    1
    34    20    22    1
    35    20    32    1
    36    21    42    1
    37    21    43    1
    38    21    44    1
    39    22    23    2
    40    22    27    1
    41    23    24    1
    42    23    28    1
    43    24    25    2
    44    24    45    1
    45    25    26    1
    46    25    46    1
    47    26    27    2
    48    27    47    1
    49    28    29    2
    50    28    30    2
    51    28    31    1
    52    31    48    1
    53    31    49    1
    54    31    50    1
    55    32    51    1
    56    32    52    1
    57    32    53    1
