@<TRIPOS>MOLECULE
lig
  62   67 0 0 0
SMALL
NO_CHARGES


@<TRIPOS>ATOM
      1 C_00         92.5682   47.3462  266.4833 c4      1  lig      -0.223278
      2 C_01         91.6181   48.3452  266.6664 c5      1  lig       0.023532
      3 C_02         91.9789   49.5400  267.2763 c6      1  lig      -0.144670
      4 C_03         93.2937   49.7963  267.6790 c7      1  lig      -0.119553
      5 C_04         93.8967   47.5399  266.9140 c8      1  lig       0.273819
      6 C_05         94.2761   48.7809  267.5103 c9      1  lig       0.351590
      7 N_06         95.5636   48.9666  267.9328 n0      1  lig      -0.404367
      8 C_07         96.4501   47.9585  267.7397 cb      1  lig       0.030699
      9 C_08         96.0608   46.7452  267.1831 ci      1  lig       0.212378
     10 N_09         94.7948   46.5277  266.7655 ng      1  lig      -0.518215
     11 C_0a         93.5976   51.0957  268.3217 cj      1  lig       0.051574
     12 N_0b         90.2871   48.1511  266.2958 nr      1  lig      -0.332104
     13 C_0c         94.5711   51.9448  267.7868 ck      1  lig      -0.256041
     14 C_0d         94.8615   53.1780  268.3681 cm      1  lig      -0.177252
     15 C_0e         92.8931   51.4384  269.4756 cn      1  lig      -0.168012
     16 C_0f         93.1961   52.6578  270.0710 co      1  lig       0.013341
     17 C_0g         94.1500   53.5596  269.5095 cq      1  lig       0.111493
     18 C_0h         94.1496   54.7271  270.3451 cr      1  lig      -0.325755
     19 C_0i         93.2853   54.4571  271.3772 cs      1  lig      -0.220923
     20 N_0j         92.7216   53.2230  271.2344 nw      1  lig       0.037149
     21 C_0k         89.7168   47.3542  265.2854 ct      1  lig       0.020401
     22 C_0l         88.4155   46.8174  265.3915 cw      1  lig      -0.000909
     23 C_0m         87.9008   46.1080  264.2919 cA      1  lig      -0.267499
     24 C_0n         88.6799   45.9426  263.1569 cB      1  lig       0.192089
     25 N_0o         89.9312   46.4387  263.0407 nA      1  lig      -0.540261
     26 C_0p         90.4252   47.1278  264.0989 cC      1  lig       0.290561
     27 C_0q         87.5601   46.9683  266.6297 cD      1  lig       0.556610
     28 O_0r         87.6700   47.9323  267.3876 o0      1  lig      -0.552668
     29 N_0s         86.6670   45.9862  266.8167 nB      1  lig      -0.520729
     30 C_0t         85.5963   45.9500  267.7902 cE      1  lig       0.147069
     31 C_0u         91.8041   52.6238  272.1856 cF      1  lig      -0.073420
     32 C_0v         85.8697   44.9843  268.9505 cG      1  lig      -0.097102
     33 C_0w         84.6496   44.8209  269.8728 cH      1  lig       0.100128
     34 O_0x         83.4889   44.4695  269.1237 o1      1  lig      -0.405199
     35 C_0y         83.1249   45.4242  268.1288 cI      1  lig       0.137331
     36 C_0z         84.2584   45.6197  267.1140 cJ      1  lig      -0.142468
     37 H_10         92.2770   46.3996  266.0578 h0      1  lig       0.149744
     38 H_11         91.2242   50.2942  267.4384 h6      1  lig       0.139100
     39 H_12         97.4700   48.1595  268.0271 h7      1  lig       0.096025
     40 H_13         96.7659   45.9451  267.0116 h8      1  lig       0.073361
     41 H_14         89.5946   48.5928  266.8897 h9      1  lig       0.318730
     42 H_15         95.0958   51.6551  266.8939 hb      1  lig       0.178522
     43 H_16         95.6155   53.8250  267.9345 hd      1  lig       0.153225
     44 H_17         92.1478   50.7838  269.9041 he      1  lig       0.142675
     45 H_18         94.7390   55.6112  270.2761 hf      1  lig       0.188570
     46 H_19         93.0455   55.0371  272.2307 hg      1  lig       0.208116
     47 H_1a         86.9050   45.6848  264.3020 hh      1  lig       0.125662
     48 H_1b         88.2773   45.3912  262.3250 hi      1  lig       0.098182
     49 H_1c         91.4139   47.5230  263.9796 hj      1  lig       0.074777
     50 H_1d         86.7305   45.1658  266.2195 hk      1  lig       0.301015
     51 H_1e         85.4687   46.9437  268.2348 hl      1  lig       0.081423
     52 H_1f         91.6215   53.3064  273.0147 hm      1  lig       0.062732
     53 H_1g         92.2473   51.7095  272.5766 hq      1  lig       0.062732
     54 H_1h         90.8673   52.3927  271.6850 hr      1  lig       0.062732
     55 H_1i         86.7428   45.3049  269.5229 ht      1  lig       0.063321
     56 H_1j         86.1061   44.0003  268.5380 hu      1  lig       0.063321
     57 H_1k         84.4589   45.7637  270.3907 hv      1  lig       0.044186
     58 H_1l         84.8389   44.0692  270.6375 hy      1  lig       0.044186
     59 H_1m         82.9089   46.3828  268.6064 hz      1  lig       0.036529
     60 H_1n         82.2144   45.0974  267.6290 hA      1  lig       0.036529
     61 H_1o         83.9940   46.3812  266.3802 hB      1  lig       0.067633
     62 H_1p         84.3720   44.6839  266.5609 hC      1  lig       0.067633
@<TRIPOS>BOND
     1     1     2    2
     2     1     5    1
     3     1    37    1
     4     2     3    1
     5     2    12    1
     6     3     4    2
     7     3    38    1
     8     4     6    1
     9     4    11    1
    10     5     6    1
    11     5    10    2
    12     6     7    2
    13     7     8    1
    14     8     9    2
    15     8    39    1
    16     9    10    1
    17     9    40    1
    18    11    13    2
    19    11    15    1
    20    12    21    1
    21    12    41    1
    22    13    14    1
    23    13    42    1
    24    14    17    2
    25    14    43    1
    26    15    16    2
    27    15    44    1
    28    16    17    1
    29    16    20    1
    30    17    18    1
    31    18    19    2
    32    18    45    1
    33    19    20    1
    34    19    46    1
    35    20    31    1
    36    21    22    2
    37    21    26    1
    38    22    23    1
    39    22    27    1
    40    23    24    2
    41    23    47    1
    42    24    25    1
    43    24    48    1
    44    25    26    2
    45    26    49    1
    46    27    28    2
    47    27    29    1
    48    29    30    1
    49    29    50    1
    50    30    32    1
    51    30    36    1
    52    30    51    1
    53    31    52    1
    54    31    53    1
    55    31    54    1
    56    32    33    1
    57    32    55    1
    58    32    56    1
    59    33    34    1
    60    33    57    1
    61    33    58    1
    62    34    35    1
    63    35    36    1
    64    35    59    1
    65    35    60    1
    66    36    61    1
    67    36    62    1
