@<TRIPOS>MOLECULE
lig
  51   54 0 0 0
SMALL
NO_CHARGES


@<TRIPOS>ATOM
      1 C_00         93.2867   49.7938  267.6782 c4      1  lig      -0.128981
      2 C_01         92.5654   47.3311  266.4816 c5      1  lig      -0.331081
      3 C_02         91.6089   48.3230  266.6726 c6      1  lig      -0.018421
      4 C_03         91.9718   49.5238  267.2764 c7      1  lig      -0.152167
      5 C_04         93.8961   47.5281  266.9156 c8      1  lig       0.391617
      6 C_05         94.2745   48.7732  267.5111 c9      1  lig       0.315045
      7 N_06         95.5637   48.9600  267.9394 n0      1  lig      -0.388365
      8 C_07         96.4525   47.9510  267.7602 cb      1  lig       0.034210
      9 C_08         96.0664   46.7362  267.2062 ci      1  lig       0.205651
     10 N_09         94.7996   46.5168  266.7811 ng      1  lig      -0.532545
     11 C_0a         89.7127   47.3363  265.2872 cj      1  lig      -0.040543
     12 C_0b         90.4139   47.1275  264.0953 ck      1  lig       0.258832
     13 N_0c         89.9037   46.4485  263.0367 nr      1  lig      -0.517940
     14 C_0d         88.6507   45.9427  263.1625 cm      1  lig       0.191750
     15 C_0e         87.8846   46.0870  264.3185 cn      1  lig      -0.225109
     16 C_0f         88.4205   46.7962  265.3983 co      1  lig       0.025265
     17 S_0g         87.4819   46.8918  266.9282 s0      1  lig       0.894159
     18 O_0h         86.1279   46.3929  266.6697 o0      1  lig      -0.520031
     19 C_0i         88.3703   45.6406  268.0228 cq      1  lig      -0.383084
     20 O_0j         87.6772   48.2349  267.4843 o1      1  lig      -0.547523
     21 N_0k         90.2707   48.1110  266.3142 nw      1  lig      -0.164707
     22 C_0l         93.5987   51.1027  268.3120 cr      1  lig       0.041745
     23 C_0m         92.9194   51.5074  269.4662 cs      1  lig      -0.112564
     24 C_0n         93.2015   52.7233  270.1079 ct      1  lig       0.056639
     25 C_0o         94.1623   53.5590  269.5218 cw      1  lig      -0.124131
     26 C_0p         94.8605   53.1670  268.3804 cA      1  lig      -0.214278
     27 C_0q         94.5797   51.9421  267.7804 cB      1  lig      -0.177852
     28 N_0r         92.5677   53.0728  271.3295 nA      1  lig      -0.166609
     29 C_0s         92.8524   54.3513  271.9762 cC      1  lig      -0.169413
     30 C_0t         91.4472   52.2880  271.8453 cD      1  lig      -0.208757
     31 H_0u         92.2797   46.3851  266.0467 h0      1  lig       0.173116
     32 H_0v         91.2121   50.2761  267.4285 h6      1  lig       0.152883
     33 H_0w         97.4763   48.1494  268.0460 h7      1  lig       0.094199
     34 H_0x         96.7758   45.9385  267.0386 h8      1  lig       0.077238
     35 H_0y         91.4110   47.5227  263.9794 h9      1  lig       0.093229
     36 H_0z         88.2698   45.3853  262.3211 hb      1  lig       0.099885
     37 H_10         86.9033   45.6379  264.3878 hd      1  lig       0.164908
     38 H_11         87.8420   45.5238  268.9687 he      1  lig       0.152883
     39 H_12         89.3912   45.9889  268.1760 hf      1  lig       0.152883
     40 H_13         88.3713   44.6834  267.5060 hg      1  lig       0.152883
     41 H_14         89.5657   48.5886  266.8661 hh      1  lig       0.256224
     42 H_15         92.1906   50.8306  269.8810 hi      1  lig       0.120191
     43 H_16         94.4187   54.5084  269.9653 hj      1  lig       0.131472
     44 H_17         95.6109   53.8148  267.9531 hk      1  lig       0.161914
     45 H_18         95.1248   51.6489  266.8935 hl      1  lig       0.156435
     46 H_19         92.3418   54.4587  272.9342 hm      1  lig       0.089192
     47 H_1a         92.5305   55.1700  271.3335 hq      1  lig       0.089192
     48 H_1b         93.9219   54.4733  272.1494 hr      1  lig       0.089192
     49 H_1c         91.1227   52.6357  272.8266 ht      1  lig       0.100423
     50 H_1d         91.7109   51.2343  271.9398 hu      1  lig       0.100423
     51 H_1e         90.6011   52.3612  271.1620 hv      1  lig       0.100423
@<TRIPOS>BOND
     1     1     4    1
     2     1     6    2
     3     1    22    1
     4     2     3    1
     5     2     5    2
     6     2    31    1
     7     3     4    2
     8     3    21    1
     9     4    32    1
    10     5     6    1
    11     5    10    1
    12     6     7    1
    13     7     8    2
    14     8     9    1
    15     8    33    1
    16     9    10    2
    17     9    34    1
    18    11    12    2
    19    11    16    1
    20    11    21    1
    21    12    13    1
    22    12    35    1
    23    13    14    2
    24    14    15    1
    25    14    36    1
    26    15    16    2
    27    15    37    1
    28    16    17    1
    29    17    18    2
    30    17    19    1
    31    17    20    2
    32    19    38    1
    33    19    39    1
    34    19    40    1
    35    21    41    1
    36    22    23    2
    37    22    27    1
    38    23    24    1
    39    23    42    1
    40    24    25    2
    41    24    28    1
    42    25    26    1
    43    25    43    1
    44    26    27    2
    45    26    44    1
    46    27    45    1
    47    28    29    1
    48    28    30    1
    49    29    46    1
    50    29    47    1
    51    29    48    1
    52    30    49    1
    53    30    50    1
    54    30    51    1
