@<TRIPOS>MOLECULE
lig
  45   48 0 0 0
SMALL
NO_CHARGES


@<TRIPOS>ATOM
      1 C_00         93.2802   49.7985  267.6875 c4      1  lig      -0.121270
      2 C_01         92.5744   47.3376  266.4723 c5      1  lig      -0.327463
      3 C_02         91.6199   48.3263  266.6804 c6      1  lig      -0.014218
      4 C_03         91.9714   49.5220  267.2872 c7      1  lig      -0.177597
      5 C_04         93.9019   47.5331  266.9251 c8      1  lig       0.386229
      6 C_05         94.2659   48.7775  267.5222 c9      1  lig       0.329684
      7 N_06         95.5666   48.9595  267.9453 n0      1  lig      -0.413118
      8 C_07         96.4488   47.9549  267.7510 cb      1  lig       0.052011
      9 C_08         96.0765   46.7394  267.2041 ci      1  lig       0.197891
     10 N_09         94.7993   46.5295  266.7714 ng      1  lig      -0.528057
     11 C_0a         93.5961   51.1154  268.3351 cj      1  lig       0.020456
     12 C_0b         94.5698   51.9449  267.8031 ck      1  lig      -0.150020
     13 C_0c         94.8585   53.1669  268.3850 cm      1  lig      -0.229402
     14 C_0d         94.1392   53.5776  269.5454 cn      1  lig      -0.159428
     15 C_0e         93.2374   52.7442  270.0633 co      1  lig       0.252346
     16 C_0f         92.9105   51.5224  269.5097 cq      1  lig      -0.156024
     17 N_0g         90.2895   48.1235  266.3187 nr      1  lig      -0.160522
     18 C_0h         89.7108   47.3399  265.2871 cr      1  lig      -0.036395
     19 C_0i         90.4200   47.1068  264.0926 cs      1  lig       0.253643
     20 N_0j         89.9178   46.4353  263.0435 nw      1  lig      -0.517049
     21 C_0k         88.6596   45.9305  263.1598 ct      1  lig       0.192784
     22 C_0l         87.8887   46.0861  264.3126 cw      1  lig      -0.227401
     23 C_0m         88.4246   46.7965  265.3987 cA      1  lig       0.026671
     24 S_0n         87.4849   46.9002  266.9304 s0      1  lig       0.891938
     25 O_0o         86.1214   46.3894  266.6610 o0      1  lig      -0.520211
     26 O_0p         87.6704   48.2235  267.4846 o1      1  lig      -0.541072
     27 C_0q         88.3749   45.6310  268.0078 cB      1  lig      -0.380426
     28 N_0r         92.5599   53.1152  271.2532 nA      1  lig      -0.886865
     29 H_0s         92.2846   46.3852  266.0479 h0      1  lig       0.171732
     30 H_0t         91.2071   50.2822  267.4406 h6      1  lig       0.182884
     31 H_0u         97.4762   48.1500  268.0507 h7      1  lig       0.091351
     32 H_0v         96.7765   45.9460  267.0392 h8      1  lig       0.077915
     33 H_0w         95.1122   51.6526  266.8983 h9      1  lig       0.156233
     34 H_0x         95.6095   53.8251  267.9556 hb      1  lig       0.167629
     35 H_0y         94.4033   54.5265  269.9861 hd      1  lig       0.146711
     36 H_0z         92.1768   50.8602  269.9347 he      1  lig       0.131982
     37 H_10         89.5718   48.6003  266.8710 hf      1  lig       0.243423
     38 H_11         91.4072   47.5191  263.9725 hg      1  lig       0.095151
     39 H_12         88.2712   45.3832  262.3244 hh      1  lig       0.099963
     40 H_13         86.8931   45.6417  264.3768 hi      1  lig       0.166128
     41 H_14         87.8403   45.5136  268.9559 hj      1  lig       0.152927
     42 H_15         89.3890   45.9893  268.1772 hk      1  lig       0.152927
     43 H_16         88.3862   44.6843  267.4915 hl      1  lig       0.152927
     44 H_17         91.9435   52.4651  271.7202 hm      1  lig       0.376501
     45 H_18         92.8326   53.9673  271.7255 hq      1  lig       0.376501
@<TRIPOS>BOND
     1     1     4    1
     2     1     6    2
     3     1    11    1
     4     2     3    1
     5     2     5    2
     6     2    29    1
     7     3     4    2
     8     3    17    1
     9     4    30    1
    10     5     6    1
    11     5    10    1
    12     6     7    1
    13     7     8    2
    14     8     9    1
    15     8    31    1
    16     9    10    2
    17     9    32    1
    18    11    12    2
    19    11    16    1
    20    12    13    1
    21    12    33    1
    22    13    14    2
    23    13    34    1
    24    14    15    1
    25    14    35    1
    26    15    16    2
    27    15    28    1
    28    16    36    1
    29    17    18    1
    30    17    37    1
    31    18    19    2
    32    18    23    1
    33    19    20    1
    34    19    38    1
    35    20    21    2
    36    21    22    1
    37    21    39    1
    38    22    23    2
    39    22    40    1
    40    23    24    1
    41    24    25    2
    42    24    26    2
    43    24    27    1
    44    27    41    1
    45    27    42    1
    46    27    43    1
    47    28    44    1
    48    28    45    1
