@<TRIPOS>MOLECULE
lig
  47   50 0 0 0
SMALL
NO_CHARGES


@<TRIPOS>ATOM
      1 C_00         93.2782   49.7896  267.6853 c4      1  lig      -0.127160
      2 C_01         92.5645   47.3279  266.4843 c5      1  lig      -0.311796
      3 C_02         91.6114   48.3242  266.6766 c6      1  lig      -0.008855
      4 C_03         91.9687   49.5189  267.2814 c7      1  lig      -0.172272
      5 C_04         93.8940   47.5285  266.9239 c8      1  lig       0.370641
      6 C_05         94.2716   48.7689  267.5195 c9      1  lig       0.323069
      7 N_06         95.5595   48.9594  267.9444 n0      1  lig      -0.385140
      8 C_07         96.4507   47.9529  267.7597 cb      1  lig       0.028110
      9 C_08         96.0667   46.7376  267.2079 ci      1  lig       0.212580
     10 N_09         94.7985   46.5177  266.7833 ng      1  lig      -0.525702
     11 C_0a         93.5961   51.0950  268.3176 cj      1  lig       0.045252
     12 C_0b         92.8354   51.5850  269.3805 ck      1  lig      -0.106772
     13 C_0c         93.1459   52.8020  269.9772 cm      1  lig      -0.246756
     14 C_0d         94.2185   53.5485  269.5127 cn      1  lig      -0.103390
     15 C_0e         94.9646   53.1033  268.4055 co      1  lig       0.171388
     16 C_0f         94.6620   51.8657  267.8407 cq      1  lig      -0.151355
     17 N_0g         90.2696   48.1131  266.3141 nr      1  lig      -0.174779
     18 C_0h         89.7134   47.3365  265.2841 cr      1  lig      -0.050918
     19 C_0i         90.4132   47.1201  264.0930 cs      1  lig       0.271114
     20 N_0j         89.9020   46.4455  263.0351 nw      1  lig      -0.519650
     21 C_0k         88.6551   45.9413  263.1596 ct      1  lig       0.188975
     22 C_0l         87.8824   46.0848  264.3154 cw      1  lig      -0.218234
     23 C_0m         88.4203   46.7966  265.3977 cA      1  lig       0.025788
     24 S_0n         87.4762   46.8845  266.9224 s0      1  lig       0.902843
     25 O_0o         86.1286   46.4001  266.6639 o0      1  lig      -0.520280
     26 O_0p         87.6817   48.2276  267.4906 o1      1  lig      -0.546980
     27 C_0q         88.3690   45.6249  268.0119 cB      1  lig      -0.391710
     28 O_0r         95.9690   53.8069  267.7995 o2      1  lig      -0.296609
     29 C_0s         96.3470   55.0729  268.3310 cC      1  lig       0.615396
     30 F_0t         97.3096   55.5398  267.5396 f0      1  lig      -0.167453
     31 F_0u         95.3611   55.9453  268.3259 f1      1  lig      -0.174795
     32 F_0v         96.7836   54.9621  269.5556 f2      1  lig      -0.176745
     33 H_0w         92.2832   46.3844  266.0477 h0      1  lig       0.171322
     34 H_0x         91.2070   50.2776  267.4316 h6      1  lig       0.171137
     35 H_0y         97.4740   48.1497  268.0475 h7      1  lig       0.100210
     36 H_0z         96.7752   45.9403  267.0447 h8      1  lig       0.078574
     37 H_10         91.9978   51.0151  269.7584 h9      1  lig       0.134685
     38 H_11         92.5604   53.1755  270.8094 hb      1  lig       0.180695
     39 H_12         94.4210   54.4921  269.9893 hd      1  lig       0.143313
     40 H_13         95.2451   51.5271  266.9975 he      1  lig       0.157573
     41 H_14         89.5686   48.5877  266.8693 hf      1  lig       0.258358
     42 H_15         91.4091   47.5207  263.9742 hg      1  lig       0.090644
     43 H_16         88.2678   45.3844  262.3197 hh      1  lig       0.102865
     44 H_17         86.9024   45.6345  264.3838 hi      1  lig       0.163166
     45 H_18         87.8428   45.5077  268.9515 hj      1  lig       0.156551
     46 H_19         89.3884   45.9738  268.1659 hk      1  lig       0.156551
     47 H_1a         88.3746   44.6716  267.4801 hl      1  lig       0.156551
@<TRIPOS>BOND
     1     1     4    1
     2     1     6    2
     3     1    11    1
     4     2     3    1
     5     2     5    2
     6     2    33    1
     7     3     4    2
     8     3    17    1
     9     4    34    1
    10     5     6    1
    11     5    10    1
    12     6     7    1
    13     7     8    2
    14     8     9    1
    15     8    35    1
    16     9    10    2
    17     9    36    1
    18    11    12    2
    19    11    16    1
    20    12    13    1
    21    12    37    1
    22    13    14    2
    23    13    38    1
    24    14    15    1
    25    14    39    1
    26    15    16    2
    27    15    28    1
    28    16    40    1
    29    17    18    1
    30    17    41    1
    31    18    19    2
    32    18    23    1
    33    19    20    1
    34    19    42    1
    35    20    21    2
    36    21    22    1
    37    21    43    1
    38    22    23    2
    39    22    44    1
    40    23    24    1
    41    24    25    2
    42    24    26    2
    43    24    27    1
    44    27    45    1
    45    27    46    1
    46    27    47    1
    47    28    29    1
    48    29    30    1
    49    29    31    1
    50    29    32    1
