@<TRIPOS>MOLECULE
lig
  47   50 0 0 0
SMALL
NO_CHARGES


@<TRIPOS>ATOM
      1 C_00         93.2875   49.7838  267.6770 c4      1  lig      -0.137747
      2 C_01         92.5724   47.3125  266.4966 c5      1  lig      -0.322184
      3 C_02         91.6143   48.3091  266.6745 c6      1  lig      -0.001697
      4 C_03         91.9734   49.5126  267.2693 c7      1  lig      -0.169720
      5 C_04         93.8983   47.5150  266.9402 c8      1  lig       0.396868
      6 C_05         94.2747   48.7631  267.5237 c9      1  lig       0.295890
      7 N_06         95.5632   48.9601  267.9551 n0      1  lig      -0.377649
      8 C_07         96.4531   47.9523  267.7789 cb      1  lig       0.029324
      9 C_08         96.0721   46.7327  267.2263 ci      1  lig       0.211975
     10 N_09         94.8009   46.4988  266.8238 ng      1  lig      -0.535344
     11 C_0a         93.5911   51.0854  268.3137 cj      1  lig       0.069106
     12 C_0b         92.8469   51.5645  269.4014 ck      1  lig      -0.061195
     13 C_0c         93.1400   52.7949  269.9867 cm      1  lig      -0.322249
     14 C_0d         94.6339   51.8738  267.8239 cn      1  lig      -0.196192
     15 N_0e         90.2801   48.1021  266.3129 nr      1  lig      -0.178259
     16 C_0f         89.7132   47.3295  265.2851 co      1  lig      -0.047205
     17 C_0g         90.4095   47.1212  264.0895 cq      1  lig       0.268105
     18 N_0h         89.8943   46.4354  263.0351 nw      1  lig      -0.518146
     19 C_0i         88.6421   45.9295  263.1649 cr      1  lig       0.184826
     20 C_0j         87.8836   46.0722  264.3230 cs      1  lig      -0.215242
     21 C_0k         88.4211   46.7936  265.3951 ct      1  lig       0.026343
     22 S_0l         87.4795   46.9124  266.9240 s0      1  lig       0.895115
     23 O_0m         86.1188   46.4328  266.6652 o0      1  lig      -0.520898
     24 O_0n         87.6945   48.2548  267.4760 o1      1  lig      -0.545328
     25 C_0o         88.3552   45.6686  268.0255 cw      1  lig      -0.381092
     26 C_0p         94.9298   53.1047  268.3962 cA      1  lig       0.026054
     27 C_0q         94.2024   53.5588  269.5010 cB      1  lig       0.015283
     28 C_0r         96.0833   55.7215  268.3802 cC      1  lig      -0.176426
     29 S_0s         96.1817   54.0755  267.6506 s1      1  lig      -0.216058
     30 H_0t         92.2931   46.3625  266.0674 h0      1  lig       0.170408
     31 H_0u         91.2162   50.2704  267.4061 h6      1  lig       0.163530
     32 H_0v         97.4741   48.1517  268.0664 h7      1  lig       0.095345
     33 H_0w         96.7829   45.9289  267.0901 h8      1  lig       0.078030
     34 H_0x         92.0296   50.9757  269.8043 h9      1  lig       0.122551
     35 H_0y         92.5765   53.1471  270.8375 hb      1  lig       0.175546
     36 H_0z         95.1927   51.5424  266.9621 hd      1  lig       0.198108
     37 H_10         89.5863   48.5720  266.8822 he      1  lig       0.259823
     38 H_11         91.4058   47.5156  263.9586 hf      1  lig       0.090096
     39 H_12         88.2563   45.3792  262.3224 hg      1  lig       0.101913
     40 H_13         86.9089   45.6181  264.3929 hh      1  lig       0.162088
     41 H_14         87.8313   45.6086  268.9799 hi      1  lig       0.153285
     42 H_15         89.3842   45.9944  268.1686 hj      1  lig       0.153285
     43 H_16         88.3348   44.7037  267.5293 hk      1  lig       0.153285
     44 H_17         94.4208   54.5069  269.9694 hl      1  lig       0.123545
     45 H_18         96.7764   56.3647  267.8329 hm      1  lig       0.100968
     46 H_19         96.3260   55.6602  269.4465 hq      1  lig       0.100968
     47 H_1a         95.0813   56.1420  268.2849 hr      1  lig       0.100968
@<TRIPOS>BOND
     1     1     4    1
     2     1     6    2
     3     1    11    1
     4     2     3    1
     5     2     5    2
     6     2    30    1
     7     3     4    2
     8     3    15    1
     9     4    31    1
    10     5     6    1
    11     5    10    1
    12     6     7    1
    13     7     8    2
    14     8     9    1
    15     8    32    1
    16     9    10    2
    17     9    33    1
    18    11    12    2
    19    11    14    1
    20    12    13    1
    21    12    34    1
    22    13    27    2
    23    13    35    1
    24    14    26    2
    25    14    36    1
    26    15    16    1
    27    15    37    1
    28    16    17    2
    29    16    21    1
    30    17    18    1
    31    17    38    1
    32    18    19    2
    33    19    20    1
    34    19    39    1
    35    20    21    2
    36    20    40    1
    37    21    22    1
    38    22    23    2
    39    22    24    2
    40    22    25    1
    41    25    41    1
    42    25    42    1
    43    25    43    1
    44    26    27    1
    45    26    29    1
    46    27    44    1
    47    28    29    1
    48    28    45    1
    49    28    46    1
    50    28    47    1
