@<TRIPOS>MOLECULE
lig
  43   46 0 0 0
SMALL
NO_CHARGES


@<TRIPOS>ATOM
      1 C_00         93.2801   49.7948  267.6926 c4      1  lig      -0.190112
      2 C_01         92.5697   47.3273  266.4879 c5      1  lig      -0.308499
      3 C_02         91.6101   48.3227  266.6794 c6      1  lig      -0.002798
      4 C_03         91.9699   49.5231  267.2872 c7      1  lig      -0.150910
      5 C_04         93.8968   47.5279  266.9313 c8      1  lig       0.372426
      6 C_05         94.2695   48.7730  267.5260 c9      1  lig       0.335044
      7 N_06         95.5576   48.9586  267.9485 n0      1  lig      -0.385374
      8 C_07         96.4495   47.9531  267.7601 cb      1  lig       0.025611
      9 C_08         96.0662   46.7381  267.2124 ci      1  lig       0.213430
     10 N_09         94.7965   46.5169  266.7871 ng      1  lig      -0.529292
     11 C_0a         93.5926   51.1080  268.3254 cj      1  lig       0.093167
     12 C_0b         93.0431   51.4518  269.5675 ck      1  lig      -0.113721
     13 C_0c         93.3489   52.6803  270.1568 cm      1  lig      -0.204505
     14 C_0d         94.2002   53.5732  269.5104 cn      1  lig      -0.012020
     15 C_0e         94.7102   53.2574  268.2528 co      1  lig      -0.134888
     16 C_0f         94.4268   52.0279  267.6749 cq      1  lig      -0.043134
     17 N_0g         90.2713   48.1126  266.3137 nr      1  lig      -0.189881
     18 C_0h         89.7145   47.3382  265.2871 cr      1  lig      -0.047049
     19 C_0i         90.4125   47.1278  264.0926 cs      1  lig       0.272953
     20 N_0j         89.9049   46.4459  263.0330 nw      1  lig      -0.519085
     21 C_0k         88.6524   45.9395  263.1609 ct      1  lig       0.186280
     22 C_0l         87.8830   46.0841  264.3170 cw      1  lig      -0.218294
     23 C_0m         88.4216   46.7951  265.3953 cA      1  lig       0.026538
     24 S_0n         87.4809   46.8875  266.9255 s0      1  lig       0.900761
     25 O_0o         86.1229   46.4026  266.6623 o0      1  lig      -0.519696
     26 O_0p         87.6858   48.2236  267.4941 o1      1  lig      -0.546432
     27 C_0q         88.3659   45.6223  267.9978 cB      1  lig      -0.393089
     28 Br0r         95.7702   54.5153  267.3088 a0      1  lig      -0.081288
     29 H_0s         92.2845   46.3806  266.0483 h0      1  lig       0.169631
     30 H_0t         91.2071   50.2769  267.4318 h6      1  lig       0.163082
     31 H_0u         97.4743   48.1503  268.0502 h7      1  lig       0.099506
     32 H_0v         96.7761   45.9410  267.0505 h8      1  lig       0.079649
     33 H_0w         92.3934   50.7654  270.0803 h9      1  lig       0.134644
     34 H_0x         92.9287   52.9349  271.1181 hb      1  lig       0.155084
     35 H_0y         94.4175   54.5360  269.9608 hd      1  lig       0.130672
     36 H_0z         94.8274   51.7986  266.6985 he      1  lig       0.140489
     37 H_10         89.5702   48.5863  266.8724 hf      1  lig       0.263822
     38 H_11         91.4072   47.5171  263.9719 hg      1  lig       0.089031
     39 H_12         88.2658   45.3835  262.3188 hh      1  lig       0.103840
     40 H_13         86.9009   45.6304  264.3829 hi      1  lig       0.163224
     41 H_14         87.8375   45.5096  268.9490 hj      1  lig       0.157061
     42 H_15         89.3862   45.9688  268.1678 hk      1  lig       0.157061
     43 H_16         88.3764   44.6703  267.4706 hl      1  lig       0.157061
@<TRIPOS>BOND
     1     1     4    1
     2     1     6    2
     3     1    11    1
     4     2     3    1
     5     2     5    2
     6     2    29    1
     7     3     4    2
     8     3    17    1
     9     4    30    1
    10     5     6    1
    11     5    10    1
    12     6     7    1
    13     7     8    2
    14     8     9    1
    15     8    31    1
    16     9    10    2
    17     9    32    1
    18    11    12    2
    19    11    16    1
    20    12    13    1
    21    12    33    1
    22    13    14    2
    23    13    34    1
    24    14    15    1
    25    14    35    1
    26    15    16    2
    27    15    28    1
    28    16    36    1
    29    17    18    1
    30    17    37    1
    31    18    19    2
    32    18    23    1
    33    19    20    1
    34    19    38    1
    35    20    21    2
    36    21    22    1
    37    21    39    1
    38    22    23    2
    39    22    40    1
    40    23    24    1
    41    24    25    2
    42    24    26    2
    43    24    27    1
    44    27    41    1
    45    27    42    1
    46    27    43    1
