@<TRIPOS>MOLECULE
lig
  43   46 0 0 0
SMALL
NO_CHARGES


@<TRIPOS>ATOM
      1 C_00         93.2882   49.7977  267.6708 c4      1  lig      -0.163079
      2 C_01         92.5637   47.3335  266.4846 c5      1  lig      -0.314027
      3 C_02         91.6081   48.3294  266.6725 c6      1  lig      -0.002746
      4 C_03         91.9709   49.5300  267.2741 c7      1  lig      -0.162131
      5 C_04         93.8914   47.5333  266.9162 c8      1  lig       0.378056
      6 C_05         94.2731   48.7764  267.5081 c9      1  lig       0.326425
      7 N_06         95.5591   48.9636  267.9347 n0      1  lig      -0.394592
      8 C_07         96.4502   47.9543  267.7521 cb      1  lig       0.030502
      9 C_08         96.0585   46.7408  267.1942 ci      1  lig       0.208314
     10 N_09         94.7973   46.5201  266.7745 ng      1  lig      -0.526733
     11 C_0a         93.5906   51.0998  268.3213 cj      1  lig       0.107719
     12 C_0b         94.5720   51.9589  267.8003 ck      1  lig      -0.181747
     13 C_0c         94.8352   53.1750  268.4354 cm      1  lig      -0.061250
     14 C_0d         94.1267   53.5136  269.5887 cn      1  lig      -0.069083
     15 C_0e         93.1672   52.6613  270.1091 co      1  lig      -0.096783
     16 C_0f         92.8955   51.4622  269.4718 cq      1  lig      -0.121646
     17 N_0g         90.2709   48.1207  266.3138 nr      1  lig      -0.183446
     18 C_0h         89.7141   47.3423  265.2863 cr      1  lig      -0.047963
     19 C_0i         90.4157   47.1268  264.0944 cs      1  lig       0.270789
     20 N_0j         89.9080   46.4425  263.0386 nw      1  lig      -0.517514
     21 C_0k         88.6564   45.9405  263.1630 ct      1  lig       0.183266
     22 C_0l         87.8865   46.0900  264.3151 cw      1  lig      -0.211880
     23 C_0m         88.4211   46.7995  265.3973 cA      1  lig       0.025478
     24 S_0n         87.4806   46.8874  266.9241 s0      1  lig       0.892303
     25 O_0o         86.1316   46.3840  266.6643 o0      1  lig      -0.517198
     26 O_0p         87.6664   48.2322  267.4864 o1      1  lig      -0.543368
     27 C_0q         88.3761   45.6411  268.0196 cB      1  lig      -0.390437
     28 Br0r         94.4648   55.1135  270.5550 a0      1  lig      -0.083787
     29 H_0s         92.2813   46.3855  266.0517 h0      1  lig       0.169949
     30 H_0t         91.2136   50.2850  267.4304 h6      1  lig       0.163005
     31 H_0u         97.4700   48.1448  268.0461 h7      1  lig       0.098999
     32 H_0v         96.7717   45.9421  267.0347 h8      1  lig       0.080012
     33 H_0w         95.1086   51.6832  266.9117 h9      1  lig       0.162637
     34 H_0x         95.5873   53.8378  268.0181 hb      1  lig       0.133688
     35 H_0y         92.6500   52.9364  271.0211 hd      1  lig       0.141006
     36 H_0z         92.1555   50.8050  269.8997 he      1  lig       0.129606
     37 H_10         89.5786   48.6031  266.8763 hf      1  lig       0.262506
     38 H_11         91.4089   47.5246  263.9655 hg      1  lig       0.088850
     39 H_12         88.2700   45.3879  262.3187 hh      1  lig       0.103938
     40 H_13         86.9013   45.6455  264.3724 hi      1  lig       0.161629
     41 H_14         87.8571   45.5438  268.9719 hj      1  lig       0.156911
     42 H_15         89.4007   45.9839  268.1650 hk      1  lig       0.156911
     43 H_16         88.3665   44.6742  267.5195 hl      1  lig       0.156911
@<TRIPOS>BOND
     1     1     4    1
     2     1     6    2
     3     1    11    1
     4     2     3    1
     5     2     5    2
     6     2    29    1
     7     3     4    2
     8     3    17    1
     9     4    30    1
    10     5     6    1
    11     5    10    1
    12     6     7    1
    13     7     8    2
    14     8     9    1
    15     8    31    1
    16     9    10    2
    17     9    32    1
    18    11    12    2
    19    11    16    1
    20    12    13    1
    21    12    33    1
    22    13    14    2
    23    13    34    1
    24    14    15    1
    25    14    28    1
    26    15    16    2
    27    15    35    1
    28    16    36    1
    29    17    18    1
    30    17    37    1
    31    18    19    2
    32    18    23    1
    33    19    20    1
    34    19    38    1
    35    20    21    2
    36    21    22    1
    37    21    39    1
    38    22    23    2
    39    22    40    1
    40    23    24    1
    41    24    25    2
    42    24    26    2
    43    24    27    1
    44    27    41    1
    45    27    42    1
    46    27    43    1
