@<TRIPOS>MOLECULE
lig
  46   49 0 0 0
SMALL
NO_CHARGES


@<TRIPOS>ATOM
      1 C_00         93.0435   49.8102  267.7232 c4      1  lig      -0.151027
      2 C_01         92.5273   47.3329  266.4277 c5      1  lig      -0.313259
      3 C_02         91.5132   48.2719  266.5844 c6      1  lig      -0.002874
      4 C_03         91.7777   49.4816  267.2148 c7      1  lig      -0.166676
      5 C_04         93.8278   47.6124  266.9005 c8      1  lig       0.379332
      6 C_05         94.1023   48.8575  267.5509 c9      1  lig       0.315054
      7 N_06         95.3591   49.1150  268.0280 n0      1  lig      -0.385343
      8 C_07         96.3141   48.1685  267.8581 cb      1  lig       0.025046
      9 C_08         96.0343   46.9585  267.2294 ci      1  lig       0.217418
     10 N_09         94.8031   46.6694  266.7522 ng      1  lig      -0.529577
     11 C_0a         93.2132   51.0616  268.5051 cj      1  lig       0.117473
     12 C_0b         92.2931   51.3561  269.5168 ck      1  lig      -0.119452
     13 C_0c         92.4526   52.4703  270.3218 cm      1  lig      -0.183915
     14 C_0d         94.2814   51.9348  268.2910 cn      1  lig      -0.188093
     15 N_0e         90.1979   47.9914  266.1949 nr      1  lig      -0.180619
     16 C_0f         89.6525   47.2396  265.1468 co      1  lig      -0.046521
     17 C_0g         90.3884   46.9960  263.9809 cq      1  lig       0.270158
     18 N_0h         89.8924   46.3415  262.9026 nw      1  lig      -0.518240
     19 C_0i         88.6191   45.8808  262.9839 cr      1  lig       0.186150
     20 C_0j         87.8123   46.0650  264.1082 cs      1  lig      -0.211676
     21 C_0k         88.3278   46.7653  265.2033 ct      1  lig       0.022942
     22 S_0l         87.2988   46.9262  266.6745 s0      1  lig       0.892618
     23 O_0m         87.6993   48.1509  267.3900 o0      1  lig      -0.543141
     24 O_0n         85.9037   46.7478  266.2781 o1      1  lig      -0.516188
     25 C_0o         87.8417   45.4403  267.6817 cw      1  lig      -0.393370
     26 C_0p         94.4415   53.0681  269.0925 cA      1  lig      -0.148869
     27 C_0q         93.5190   53.3406  270.1122 cB      1  lig      -0.008005
     28 C_0r         93.6396   54.5887  270.9796 cC      1  lig       0.541099
     29 F_0s         94.4603   55.4970  270.4478 f0      1  lig      -0.195672
     30 F_0t         92.4459   55.1254  271.1248 f1      1  lig      -0.194597
     31 F_0u         94.0622   54.3038  272.1875 f2      1  lig      -0.200863
     32 H_0v         92.3045   46.3748  265.9852 h0      1  lig       0.172141
     33 H_0w         90.9583   50.1717  267.3621 h6      1  lig       0.165964
     34 H_0x         97.3055   48.4008  268.2211 h7      1  lig       0.100122
     35 H_0y         96.7946   46.1974  267.1006 h8      1  lig       0.078126
     36 H_0z         91.4475   50.7090  269.6907 h9      1  lig       0.134035
     37 H_10         91.7245   52.6732  271.1027 hb      1  lig       0.164004
     38 H_11         95.0049   51.7511  267.5041 hd      1  lig       0.168818
     39 H_12         89.4779   48.4047  266.7789 he      1  lig       0.261051
     40 H_13         91.4061   47.3503  263.8938 hf      1  lig       0.088836
     41 H_14         88.2509   45.3244  262.1374 hg      1  lig       0.103578
     42 H_15         86.8142   45.6457  264.1398 hh      1  lig       0.161678
     43 H_16         87.2648   45.4223  268.6016 hi      1  lig       0.157826
     44 H_17         88.9040   45.5329  267.9000 hj      1  lig       0.157826
     45 H_18         87.6573   44.5397  267.0941 hk      1  lig       0.157826
     46 H_19         95.2741   53.7341  268.9078 hl      1  lig       0.158856
@<TRIPOS>BOND
     1     1     4    1
     2     1     6    2
     3     1    11    1
     4     2     3    1
     5     2     5    2
     6     2    32    1
     7     3     4    2
     8     3    15    1
     9     4    33    1
    10     5     6    1
    11     5    10    1
    12     6     7    1
    13     7     8    2
    14     8     9    1
    15     8    34    1
    16     9    10    2
    17     9    35    1
    18    11    12    2
    19    11    14    1
    20    12    13    1
    21    12    36    1
    22    13    27    2
    23    13    37    1
    24    14    26    2
    25    14    38    1
    26    15    16    1
    27    15    39    1
    28    16    17    2
    29    16    21    1
    30    17    18    1
    31    17    40    1
    32    18    19    2
    33    19    20    1
    34    19    41    1
    35    20    21    2
    36    20    42    1
    37    21    22    1
    38    22    23    2
    39    22    24    2
    40    22    25    1
    41    25    43    1
    42    25    44    1
    43    25    45    1
    44    26    27    1
    45    26    46    1
    46    27    28    1
    47    28    29    1
    48    28    30    1
    49    28    31    1
