@<TRIPOS>MOLECULE
lig
  49   52 0 0 0
SMALL
NO_CHARGES


@<TRIPOS>ATOM
      1 C_00         91.6083   48.3334  266.6744 c4      1  lig      -0.003656
      2 C_01         91.9770   49.5235  267.2704 c5      1  lig      -0.195044
      3 C_02         93.2888   49.7910  267.6682 c6      1  lig      -0.102315
      4 C_03         92.5616   47.3282  266.4823 c7      1  lig      -0.314542
      5 C_04         93.8964   47.5326  266.9181 c8      1  lig       0.379347
      6 C_05         94.2747   48.7648  267.5031 c9      1  lig       0.294144
      7 N_06         95.5582   48.9607  267.9334 n0      1  lig      -0.393326
      8 C_07         96.4450   47.9497  267.7524 cb      1  lig       0.040077
      9 C_08         96.0650   46.7377  267.1987 ci      1  lig       0.208794
     10 N_09         94.7919   46.5129  266.7751 ng      1  lig      -0.526997
     11 N_0a         90.2641   48.1146  266.3110 nr      1  lig      -0.171150
     12 C_0b         93.6036   51.0836  268.3078 cj      1  lig       0.100749
     13 C_0c         94.5822   51.9426  267.7946 ck      1  lig      -0.212985
     14 C_0d         94.8311   53.1648  268.4135 cm      1  lig      -0.170255
     15 C_0e         92.9139   51.4502  269.4609 cn      1  lig      -0.168446
     16 C_0f         93.1683   52.6744  270.0993 co      1  lig      -0.185424
     17 C_0g         94.1199   53.5419  269.5356 cq      1  lig       0.048073
     18 C_0h         89.7151   47.3380  265.2859 cr      1  lig      -0.043134
     19 C_0i         90.4155   47.1252  264.0962 cs      1  lig       0.264807
     20 N_0j         89.9070   46.4429  263.0387 nw      1  lig      -0.511420
     21 C_0k         88.6553   45.9399  263.1634 ct      1  lig       0.157339
     22 C_0l         87.8846   46.0881  264.3216 cw      1  lig      -0.195474
     23 C_0m         88.4235   46.7973  265.3979 cA      1  lig       0.023892
     24 S_0n         87.4819   46.9001  266.9260 s0      1  lig       0.886973
     25 O_0o         86.1337   46.3858  266.6708 o0      1  lig      -0.518364
     26 O_0p         87.6636   48.2432  267.4756 o1      1  lig      -0.540454
     27 C_0q         88.3745   45.6750  268.0367 cB      1  lig      -0.388673
     28 C_0r         94.3537   54.9171  270.1798 cC      1  lig       0.043604
     29 C_0s         93.3263   55.3509  271.2282 cD      1  lig      -0.070307
     30 H_0t         91.2153   50.2843  267.4284 h0      1  lig       0.170496
     31 H_0u         92.2808   46.3800  266.0508 h6      1  lig       0.166709
     32 H_0v         97.4713   48.1443  268.0472 h7      1  lig       0.093953
     33 H_0w         96.7709   45.9398  267.0374 h8      1  lig       0.074885
     34 H_0x         89.5797   48.5996  266.8736 h9      1  lig       0.253667
     35 H_0y         95.1217   51.6636  266.9061 hb      1  lig       0.173194
     36 H_0z         95.5765   53.8258  267.9781 hd      1  lig       0.126055
     37 H_10         92.1686   50.7946  269.8997 he      1  lig       0.139621
     38 H_11         92.6234   52.9039  270.9908 hf      1  lig       0.139886
     39 H_12         91.4081   47.5271  263.9663 hg      1  lig       0.090152
     40 H_13         88.2685   45.3871  262.3178 hh      1  lig       0.111402
     41 H_14         86.9030   45.6439  264.3753 hi      1  lig       0.156883
     42 H_15         87.8677   45.6377  269.0039 hj      1  lig       0.156102
     43 H_16         89.4074   46.0025  268.1649 hk      1  lig       0.156102
     44 H_17         88.3453   44.6912  267.5702 hl      1  lig       0.156102
     45 H_18         94.5106   55.6469  269.3723 hm      1  lig       0.020340
     46 H_19         95.2617   54.9789  270.8007 hq      1  lig       0.020340
     47 H_1a         93.6635   56.3169  271.6265 hr      1  lig       0.019426
     48 H_1b         93.3324   54.6666  272.0834 ht      1  lig       0.019426
     49 H_1c         92.3099   55.4448  270.8648 hu      1  lig       0.019426
@<TRIPOS>BOND
     1     1     2    2
     2     1     4    1
     3     1    11    1
     4     2     3    1
     5     2    30    1
     6     3     6    2
     7     3    12    1
     8     4     5    2
     9     4    31    1
    10     5     6    1
    11     5    10    1
    12     6     7    1
    13     7     8    2
    14     8     9    1
    15     8    32    1
    16     9    10    2
    17     9    33    1
    18    11    18    1
    19    11    34    1
    20    12    13    2
    21    12    15    1
    22    13    14    1
    23    13    35    1
    24    14    17    2
    25    14    36    1
    26    15    16    2
    27    15    37    1
    28    16    17    1
    29    16    38    1
    30    17    28    1
    31    18    19    2
    32    18    23    1
    33    19    20    1
    34    19    39    1
    35    20    21    2
    36    21    22    1
    37    21    40    1
    38    22    23    2
    39    22    41    1
    40    23    24    1
    41    24    25    2
    42    24    26    2
    43    24    27    1
    44    27    42    1
    45    27    43    1
    46    27    44    1
    47    28    29    1
    48    28    45    1
    49    28    46    1
    50    29    47    1
    51    29    48    1
    52    29    49    1
