@<TRIPOS>MOLECULE
lig
  47   50 0 0 0
SMALL
NO_CHARGES


@<TRIPOS>ATOM
      1 C_00         93.2891   49.7935  267.6637 c4      1  lig      -0.100196
      2 C_01         92.5608   47.3405  266.4814 c5      1  lig      -0.332975
      3 C_02         91.6077   48.3332  266.6707 c6      1  lig      -0.001838
      4 C_03         91.9710   49.5295  267.2722 c7      1  lig      -0.201494
      5 C_04         93.8940   47.5337  266.9045 c8      1  lig       0.401261
      6 C_05         94.2774   48.7739  267.4976 c9      1  lig       0.291031
      7 N_06         95.5626   48.9634  267.9320 n0      1  lig      -0.378575
      8 C_07         96.4502   47.9550  267.7462 cb      1  lig       0.020022
      9 C_08         96.0648   46.7470  267.1768 ci      1  lig       0.214649
     10 N_09         94.7990   46.5280  266.7549 ng      1  lig      -0.537040
     11 C_0a         93.5991   51.0971  268.3145 cj      1  lig       0.061445
     12 C_0b         94.5753   51.9457  267.7785 ck      1  lig      -0.162540
     13 C_0c         94.8348   53.1676  268.4112 cm      1  lig      -0.256897
     14 C_0d         94.1285   53.5217  269.5605 cn      1  lig       0.338540
     15 C_0e         93.1788   52.6604  270.1058 co      1  lig      -0.213514
     16 C_0f         92.9139   51.4668  269.4673 cq      1  lig      -0.190787
     17 N_0g         90.2715   48.1257  266.3145 nr      1  lig      -0.164731
     18 C_0h         89.7152   47.3459  265.2879 cr      1  lig      -0.045795
     19 C_0i         90.4202   47.1272  264.0964 cs      1  lig       0.263532
     20 N_0j         89.9129   46.4356  263.0461 nw      1  lig      -0.516561
     21 C_0k         88.6622   45.9374  263.1674 ct      1  lig       0.186944
     22 C_0l         87.8909   46.0945  264.3162 cw      1  lig      -0.219996
     23 C_0m         88.4225   46.8019  265.4011 cA      1  lig       0.024664
     24 S_0n         87.4807   46.8954  266.9247 s0      1  lig       0.894391
     25 O_0o         86.1397   46.3717  266.6686 o0      1  lig      -0.520087
     26 O_0p         87.6511   48.2450  267.4794 o1      1  lig      -0.545359
     27 C_0q         88.3821   45.6757  268.0448 cB      1  lig      -0.386256
     28 O_0r         94.3897   54.7426  270.1571 o2      1  lig      -0.350834
     29 C_0s         93.7287   55.0566  271.4029 cC      1  lig      -0.011087
     30 H_0t         92.2928   46.4025  266.0289 h0      1  lig       0.171896
     31 H_0u         91.2152   50.2846  267.4485 h6      1  lig       0.171263
     32 H_0v         97.4706   48.1430  268.0444 h7      1  lig       0.097004
     33 H_0w         96.7729   45.9446  267.0248 h8      1  lig       0.076788
     34 H_0x         95.1201   51.6805  266.8911 h9      1  lig       0.173509
     35 H_0y         95.5945   53.8384  267.9783 hb      1  lig       0.155658
     36 H_0z         92.6588   52.9130  271.0228 hd      1  lig       0.136512
     37 H_10         92.1743   50.8105  269.8846 he      1  lig       0.159986
     38 H_11         89.5886   48.6199  266.8796 hf      1  lig       0.255073
     39 H_12         91.4216   47.5070  263.9713 hg      1  lig       0.090252
     40 H_13         88.2783   45.3853  262.3241 hh      1  lig       0.101248
     41 H_14         86.9043   45.6552  264.3634 hi      1  lig       0.163615
     42 H_15         87.8696   45.6335  269.0001 hj      1  lig       0.154608
     43 H_16         89.4070   46.0124  268.1807 hk      1  lig       0.154608
     44 H_17         88.3643   44.6916  267.5753 hl      1  lig       0.154608
     45 H_18         94.0299   56.0094  271.7452 hm      1  lig       0.074485
     46 H_19         94.0028   54.3161  272.1675 hq      1  lig       0.074485
     47 H_1a         92.6363   55.0361  271.2683 hr      1  lig       0.074485
@<TRIPOS>BOND
     1     1     4    1
     2     1     6    2
     3     1    11    1
     4     2     3    1
     5     2     5    2
     6     2    30    1
     7     3     4    2
     8     3    17    1
     9     4    31    1
    10     5     6    1
    11     5    10    1
    12     6     7    1
    13     7     8    2
    14     8     9    1
    15     8    32    1
    16     9    10    2
    17     9    33    1
    18    11    12    2
    19    11    16    1
    20    12    13    1
    21    12    34    1
    22    13    14    2
    23    13    35    1
    24    14    15    1
    25    14    28    1
    26    15    16    2
    27    15    36    1
    28    16    37    1
    29    17    18    1
    30    17    38    1
    31    18    19    2
    32    18    23    1
    33    19    20    1
    34    19    39    1
    35    20    21    2
    36    21    22    1
    37    21    40    1
    38    22    23    2
    39    22    41    1
    40    23    24    1
    41    24    25    2
    42    24    26    2
    43    24    27    1
    44    27    42    1
    45    27    43    1
    46    27    44    1
    47    28    29    1
    48    29    45    1
    49    29    46    1
    50    29    47    1
