@<TRIPOS>MOLECULE
lig
  45   48 0 0 0
SMALL
NO_CHARGES


@<TRIPOS>ATOM
      1 C_00         93.2820   49.7787  267.6942 c4      1  lig      -0.107986
      2 C_01         92.5593   47.3370  266.4888 c5      1  lig      -0.329323
      3 C_02         91.6047   48.3296  266.6732 c6      1  lig       0.006002
      4 C_03         91.9709   49.5231  267.2782 c7      1  lig      -0.202200
      5 C_04         93.8953   47.5304  266.9261 c8      1  lig       0.397972
      6 C_05         94.2750   48.7673  267.5290 c9      1  lig       0.282542
      7 N_06         95.5619   48.9626  267.9535 n0      1  lig      -0.350655
      8 C_07         96.4516   47.9533  267.7695 cb      1  lig      -0.003148
      9 C_08         96.0598   46.7392  267.2106 ci      1  lig       0.223657
     10 N_09         94.7989   46.5188  266.7897 ng      1  lig      -0.541365
     11 C_0a         93.5952   51.0844  268.3313 cj      1  lig       0.086578
     12 C_0b         94.5719   51.9301  267.7852 ck      1  lig      -0.224845
     13 C_0c         94.8427   53.1540  268.3966 cm      1  lig      -0.240573
     14 C_0d         94.1433   53.5318  269.5201 cn      1  lig       0.375126
     15 C_0e         93.1746   52.7091  270.0775 co      1  lig      -0.278873
     16 C_0f         92.9084   51.4788  269.4813 cq      1  lig      -0.154998
     17 N_0g         90.2697   48.1106  266.3099 nr      1  lig      -0.178721
     18 C_0h         89.7103   47.3327  265.2784 cr      1  lig      -0.038586
     19 C_0i         90.4172   47.1253  264.0922 cs      1  lig       0.259206
     20 N_0j         89.8957   46.4495  263.0389 nw      1  lig      -0.515480
     21 C_0k         88.6529   45.9439  263.1611 ct      1  lig       0.181411
     22 C_0l         87.8862   46.0847  264.3178 cw      1  lig      -0.217964
     23 C_0m         88.4170   46.8009  265.3996 cA      1  lig       0.022008
     24 S_0n         87.4738   46.8803  266.9122 s0      1  lig       0.899171
     25 O_0o         86.1325   46.4072  266.6648 o0      1  lig      -0.522948
     26 O_0p         87.6872   48.2303  267.4905 o1      1  lig      -0.548990
     27 C_0q         88.3692   45.6214  267.9982 cB      1  lig      -0.370918
     28 N_0r         94.4021   54.7489  270.1265 nA      1  lig      -0.888231
     29 H_0s         92.2854   46.3918  266.0511 h0      1  lig       0.170734
     30 H_0t         91.2104   50.2821  267.4244 h6      1  lig       0.162306
     31 H_0u         97.4787   48.1515  268.0470 h7      1  lig       0.099649
     32 H_0v         96.7743   45.9391  267.0464 h8      1  lig       0.075566
     33 H_0w         95.1082   51.6414  266.9089 h9      1  lig       0.178471
     34 H_0x         95.6103   53.8120  267.9571 hb      1  lig       0.160357
     35 H_0y         92.6490   53.0121  270.9964 hd      1  lig       0.165638
     36 H_0z         92.1657   50.8433  269.9430 he      1  lig       0.150888
     37 H_10         89.5675   48.5840  266.8654 hf      1  lig       0.264131
     38 H_11         91.4129   47.5223  263.9807 hg      1  lig       0.090927
     39 H_12         88.2686   45.3827  262.3187 hh      1  lig       0.102897
     40 H_13         86.9071   45.6337  264.3890 hi      1  lig       0.162933
     41 H_14         87.8387   45.5102  268.9412 hj      1  lig       0.149938
     42 H_15         89.3864   45.9742  268.1594 hk      1  lig       0.149938
     43 H_16         88.3749   44.6677  267.4664 hl      1  lig       0.149938
     44 H_17         93.8999   55.0302  270.9569 hm      1  lig       0.373910
     45 H_18         95.0881   55.3795  269.6841 hq      1  lig       0.373910
@<TRIPOS>BOND
     1     1     4    1
     2     1     6    2
     3     1    11    1
     4     2     3    1
     5     2     5    2
     6     2    29    1
     7     3     4    2
     8     3    17    1
     9     4    30    1
    10     5     6    1
    11     5    10    1
    12     6     7    1
    13     7     8    2
    14     8     9    1
    15     8    31    1
    16     9    10    2
    17     9    32    1
    18    11    12    2
    19    11    16    1
    20    12    13    1
    21    12    33    1
    22    13    14    2
    23    13    34    1
    24    14    15    1
    25    14    28    1
    26    15    16    2
    27    15    35    1
    28    16    36    1
    29    17    18    1
    30    17    37    1
    31    18    19    2
    32    18    23    1
    33    19    20    1
    34    19    38    1
    35    20    21    2
    36    21    22    1
    37    21    39    1
    38    22    23    2
    39    22    40    1
    40    23    24    1
    41    24    25    2
    42    24    26    2
    43    24    27    1
    44    27    41    1
    45    27    42    1
    46    27    43    1
    47    28    44    1
    48    28    45    1
