@<TRIPOS>MOLECULE
lig
  53   57 0 0 0
SMALL
NO_CHARGES


@<TRIPOS>ATOM
      1 C_00         93.3114   49.8130  267.6412 c4      1  lig      -0.089381
      2 C_01         92.5675   47.3461  266.4704 c5      1  lig      -0.322350
      3 C_02         91.6140   48.3391  266.6758 c6      1  lig      -0.003231
      4 C_03         91.9831   49.5402  267.2762 c7      1  lig      -0.213332
      5 C_04         93.8959   47.5397  266.9028 c8      1  lig       0.389196
      6 C_05         94.2808   48.7816  267.4948 c9      1  lig       0.300801
      7 N_06         95.5663   48.9631  267.9272 n0      1  lig      -0.386740
      8 C_07         96.4496   47.9536  267.7395 cb      1  lig       0.031266
      9 C_08         96.0619   46.7444  267.1779 ci      1  lig       0.208170
     10 N_09         94.7952   46.5297  266.7538 ng      1  lig      -0.533435
     11 N_0a         90.2754   48.1313  266.3198 nr      1  lig      -0.171288
     12 C_0b         89.7170   47.3507  265.2914 cj      1  lig      -0.032630
     13 C_0c         90.4214   47.1275  264.1002 ck      1  lig       0.255947
     14 N_0d         89.9190   46.4350  263.0469 nw      1  lig      -0.514861
     15 C_0e         88.6628   45.9396  263.1653 cm      1  lig       0.180762
     16 C_0f         87.8883   46.0973  264.3134 cn      1  lig      -0.220048
     17 C_0g         88.4249   46.8053  265.3978 co      1  lig       0.025697
     18 S_0h         87.4805   46.8913  266.9255 s0      1  lig       0.895422
     19 O_0i         86.1396   46.3665  266.6677 o0      1  lig      -0.522675
     20 O_0j         87.6492   48.2417  267.4792 o1      1  lig      -0.546470
     21 C_0k         88.3838   45.6765  268.0465 cq      1  lig      -0.379856
     22 C_0l         93.6501   51.1190  268.2585 cr      1  lig       0.061782
     23 C_0m         94.6211   51.9736  267.7509 cs      1  lig      -0.245968
     24 C_0n         94.8963   53.2015  268.3556 ct      1  lig      -0.220427
     25 C_0o         92.9588   51.4516  269.4041 cw      1  lig      -0.188411
     26 C_0p         93.2230   52.6641  270.0467 cA      1  lig       0.026291
     27 C_0q         94.1745   53.5756  269.5049 cB      1  lig       0.169143
     28 C_0r         94.1617   54.7286  270.3490 cC      1  lig      -0.359018
     29 C_0s         93.2720   54.4750  271.3665 cD      1  lig      -0.166174
     30 N_0t         92.7072   53.2287  271.2146 nA      1  lig      -0.067532
     31 C_0u         91.8097   52.6164  272.2119 cE      1  lig       0.064680
     32 C_0v         90.7891   51.6506  271.6176 cF      1  lig      -0.021938
     33 H_0w         92.2865   46.4011  266.0282 h0      1  lig       0.167927
     34 H_0x         91.2205   50.2896  267.4479 h6      1  lig       0.185021
     35 H_0y         97.4683   48.1407  268.0439 h7      1  lig       0.094907
     36 H_0z         96.7697   45.9448  267.0181 h8      1  lig       0.076685
     37 H_10         89.5855   48.6227  266.8783 h9      1  lig       0.247420
     38 H_11         91.4226   47.5040  263.9727 hb      1  lig       0.093374
     39 H_12         88.2778   45.3844  262.3233 hd      1  lig       0.103082
     40 H_13         86.9011   45.6556  264.3639 he      1  lig       0.163706
     41 H_14         87.8696   45.6352  269.0056 hf      1  lig       0.152427
     42 H_15         89.4113   46.0126  268.1796 hg      1  lig       0.152427
     43 H_16         88.3656   44.6930  267.5796 hh      1  lig       0.152427
     44 H_17         95.1401   51.6698  266.8558 hi      1  lig       0.176330
     45 H_18         95.6429   53.8541  267.9250 hj      1  lig       0.164500
     46 H_19         92.2336   50.7237  269.7011 hk      1  lig       0.148978
     47 H_1a         94.7721   55.6146  270.2457 hl      1  lig       0.190906
     48 H_1b         93.0024   55.0952  272.2130 hm      1  lig       0.202106
     49 H_1c         91.2696   53.4001  272.7426 hq      1  lig       0.035866
     50 H_1d         92.4113   52.0715  272.9378 hr      1  lig       0.035866
     51 H_1e         90.1336   51.1695  272.3208 ht      1  lig       0.017551
     52 H_1f         91.2619   50.7266  271.3302 hu      1  lig       0.017551
     53 H_1g         90.2101   52.0773  270.7922 hv      1  lig       0.017551
@<TRIPOS>BOND
     1     1     4    1
     2     1     6    2
     3     1    22    1
     4     2     3    1
     5     2     5    2
     6     2    33    1
     7     3     4    2
     8     3    11    1
     9     4    34    1
    10     5     6    1
    11     5    10    1
    12     6     7    1
    13     7     8    2
    14     8     9    1
    15     8    35    1
    16     9    10    2
    17     9    36    1
    18    11    12    1
    19    11    37    1
    20    12    13    2
    21    12    17    1
    22    13    14    1
    23    13    38    1
    24    14    15    2
    25    15    16    1
    26    15    39    1
    27    16    17    2
    28    16    40    1
    29    17    18    1
    30    18    19    2
    31    18    20    2
    32    18    21    1
    33    21    41    1
    34    21    42    1
    35    21    43    1
    36    22    23    2
    37    22    25    1
    38    23    24    1
    39    23    44    1
    40    24    27    2
    41    24    45    1
    42    25    26    2
    43    25    46    1
    44    26    27    1
    45    26    30    1
    46    27    28    1
    47    28    29    2
    48    28    47    1
    49    29    30    1
    50    29    48    1
    51    30    31    1
    52    31    32    1
    53    31    49    1
    54    31    50    1
    55    32    51    1
    56    32    52    1
    57    32    53    1
