@<TRIPOS>MOLECULE
lig
  56   60 0 0 0
SMALL
NO_CHARGES


@<TRIPOS>ATOM
      1 C_00         93.3094   49.8018  267.6715 c4      1  lig      -0.113363
      2 C_01         92.5663   47.3465  266.4764 c5      1  lig      -0.334036
      3 C_02         91.6141   48.3425  266.6765 c6      1  lig      -0.021466
      4 C_03         91.9847   49.5423  267.2840 c7      1  lig      -0.156809
      5 C_04         93.8976   47.5374  266.9026 c8      1  lig       0.397259
      6 C_05         94.2817   48.7776  267.4988 c9      1  lig       0.297150
      7 N_06         95.5685   48.9601  267.9272 n0      1  lig      -0.388468
      8 C_07         96.4515   47.9520  267.7392 cb      1  lig       0.034863
      9 C_08         96.0722   46.7442  267.1750 ci      1  lig       0.207385
     10 N_09         94.7966   46.5286  266.7520 ng      1  lig      -0.533831
     11 C_0a         93.6558   51.0878  268.3201 cj      1  lig       0.092409
     12 C_0b         94.5958   51.9639  267.7545 ck      1  lig      -0.252456
     13 C_0c         94.8801   53.1908  268.3506 cm      1  lig      -0.226868
     14 C_0d         93.0752   51.3916  269.5378 cn      1  lig      -0.215312
     15 N_0e         90.2756   48.1331  266.3189 nr      1  lig      -0.161984
     16 C_0f         89.7176   47.3508  265.2916 co      1  lig      -0.033641
     17 C_0g         90.4208   47.1280  264.0996 cq      1  lig       0.257402
     18 N_0h         89.9177   46.4358  263.0468 nw      1  lig      -0.515289
     19 C_0i         88.6627   45.9387  263.1665 cr      1  lig       0.178809
     20 C_0j         87.8896   46.0967  264.3155 cs      1  lig      -0.214695
     21 C_0k         88.4252   46.8051  265.3987 ct      1  lig       0.016657
     22 S_0l         87.4830   46.8956  266.9271 s0      1  lig       0.905434
     23 O_0m         86.1384   46.3667  266.6674 o0      1  lig      -0.523216
     24 O_0n         87.6481   48.2411  267.4789 o1      1  lig      -0.552766
     25 C_0o         88.3835   45.6760  268.0451 cw      1  lig      -0.388402
     26 C_0p         93.2883   52.6417  270.1079 cA      1  lig       0.026886
     27 C_0q         94.1853   53.5555  269.5070 cB      1  lig       0.182448
     28 C_0r         94.1740   54.7256  270.3504 cC      1  lig      -0.377141
     29 C_0s         93.2801   54.4760  271.3702 cD      1  lig      -0.152548
     30 N_0t         92.7561   53.2209  271.2520 nA      1  lig      -0.043968
     31 C_0u         91.8097   52.5822  272.1667 cE      1  lig      -0.003554
     32 C_0v         90.3901   52.3401  271.5852 cF      1  lig       0.074442
     33 C_0w         90.2277   52.2740  270.0518 cG      1  lig      -0.070183
     34 H_0x         92.2891   46.4042  266.0275 h0      1  lig       0.171955
     35 H_0y         91.2251   50.2934  267.4554 h6      1  lig       0.143511
     36 H_0z         97.4710   48.1402  268.0447 h7      1  lig       0.093782
     37 H_10         96.7729   45.9434  267.0197 h8      1  lig       0.076340
     38 H_11         95.1080   51.6781  266.8507 h9      1  lig       0.177073
     39 H_12         95.6264   53.8508  267.9180 hb      1  lig       0.165524
     40 H_13         92.4379   50.6737  270.0168 hd      1  lig       0.151159
     41 H_14         89.5894   48.6242  266.8810 he      1  lig       0.254144
     42 H_15         91.4232   47.5028  263.9711 hf      1  lig       0.094153
     43 H_16         88.2782   45.3848  262.3238 hg      1  lig       0.103702
     44 H_17         86.9026   45.6563  264.3619 hh      1  lig       0.162515
     45 H_18         87.8704   45.6353  269.0044 hi      1  lig       0.154809
     46 H_19         89.4106   46.0123  268.1808 hj      1  lig       0.154809
     47 H_1a         88.3655   44.6919  267.5793 hk      1  lig       0.154809
     48 H_1b         94.7587   55.6055  270.2364 hl      1  lig       0.195089
     49 H_1c         92.9922   55.1042  272.2065 hm      1  lig       0.197850
     50 H_1d         91.7407   53.1842  273.0797 hq      1  lig       0.047663
     51 H_1e         92.2553   51.6380  272.4817 hr      1  lig       0.047663
     52 H_1f         89.7237   53.1198  271.9416 ht      1  lig      -0.005932
     53 H_1g         90.0417   51.4211  272.0281 hu      1  lig      -0.005932
     54 H_1h         89.1959   52.1688  269.7495 hv      1  lig       0.024722
     55 H_1i         90.6886   51.4066  269.6298 hy      1  lig       0.024722
     56 H_1j         90.6529   53.1482  269.5728 hz      1  lig       0.024722
@<TRIPOS>BOND
     1     1     4    1
     2     1     6    2
     3     1    11    1
     4     2     3    1
     5     2     5    2
     6     2    34    1
     7     3     4    2
     8     3    15    1
     9     4    35    1
    10     5     6    1
    11     5    10    1
    12     6     7    1
    13     7     8    2
    14     8     9    1
    15     8    36    1
    16     9    10    2
    17     9    37    1
    18    11    12    2
    19    11    14    1
    20    12    13    1
    21    12    38    1
    22    13    27    2
    23    13    39    1
    24    14    26    2
    25    14    40    1
    26    15    16    1
    27    15    41    1
    28    16    17    2
    29    16    21    1
    30    17    18    1
    31    17    42    1
    32    18    19    2
    33    19    20    1
    34    19    43    1
    35    20    21    2
    36    20    44    1
    37    21    22    1
    38    22    23    2
    39    22    24    2
    40    22    25    1
    41    25    45    1
    42    25    46    1
    43    25    47    1
    44    26    27    1
    45    26    30    1
    46    27    28    1
    47    28    29    2
    48    28    48    1
    49    29    30    1
    50    29    49    1
    51    30    31    1
    52    31    32    1
    53    31    50    1
    54    31    51    1
    55    32    33    1
    56    32    52    1
    57    32    53    1
    58    33    54    1
    59    33    55    1
    60    33    56    1
