@<TRIPOS>MOLECULE
lig
  56   60 0 0 0
SMALL
NO_CHARGES


@<TRIPOS>ATOM
      1 C_00         91.6126   48.3353  266.6703 c4      1  lig      -0.017869
      2 C_01         91.9733   49.5324  267.2808 c5      1  lig      -0.203489
      3 C_02         93.2894   49.7956  267.6797 c6      1  lig      -0.081329
      4 C_03         92.5692   47.3436  266.4692 c7      1  lig      -0.313040
      5 C_04         93.8975   47.5406  266.9051 c8      1  lig       0.387510
      6 C_05         94.2749   48.7798  267.5080 c9      1  lig       0.288027
      7 N_06         95.5631   48.9638  267.9368 n0      1  lig      -0.392323
      8 C_07         96.4503   47.9554  267.7480 cb      1  lig       0.048252
      9 C_08         96.0641   46.7442  267.1890 ci      1  lig       0.202109
     10 N_09         94.7980   46.5299  266.7611 ng      1  lig      -0.530407
     11 N_0a         90.2745   48.1250  266.3159 nr      1  lig      -0.162582
     12 C_0b         93.6036   51.0937  268.3225 cj      1  lig       0.080135
     13 C_0c         94.5719   51.9443  267.7904 ck      1  lig      -0.277094
     14 C_0d         94.8678   53.1797  268.3665 cm      1  lig      -0.190916
     15 C_0e         92.9154   51.4322  269.4867 cn      1  lig      -0.177873
     16 C_0f         93.2133   52.6617  270.0729 co      1  lig      -0.010786
     17 C_0g         94.1579   53.5698  269.5118 cq      1  lig       0.168926
     18 C_0h         94.1541   54.7093  270.3309 cr      1  lig      -0.392005
     19 C_0i         93.2816   54.4947  271.3567 cs      1  lig      -0.135872
     20 N_0j         92.7302   53.2407  271.2278 nw      1  lig      -0.041946
     21 C_0k         91.7687   52.6196  272.1281 ct      1  lig       0.198852
     22 C_0l         91.6695   53.3551  273.4819 cw      1  lig      -0.305619
     23 C_0m         90.4002   52.4193  271.3856 cA      1  lig      -0.117720
     24 C_0n         89.7164   47.3465  265.2896 cB      1  lig      -0.040010
     25 C_0o         90.4207   47.1272  264.0986 cC      1  lig       0.263267
     26 N_0p         89.9174   46.4367  263.0451 nA      1  lig      -0.511769
     27 C_0q         88.6611   45.9399  263.1652 cD      1  lig       0.158473
     28 C_0r         87.8879   46.0951  264.3148 cE      1  lig      -0.197658
     29 C_0s         88.4239   46.8032  265.3975 cF      1  lig       0.021030
     30 S_0t         87.4822   46.8958  266.9257 s0      1  lig       0.896162
     31 O_0u         86.1360   46.3755  266.6687 o0      1  lig      -0.521728
     32 O_0v         87.6578   48.2428  267.4781 o1      1  lig      -0.545936
     33 C_0w         88.3798   45.6764  268.0436 cG      1  lig      -0.401668
     34 H_0x         91.2145   50.2854  267.4442 h0      1  lig       0.181229
     35 H_0y         92.2845   46.3951  266.0360 h6      1  lig       0.165145
     36 H_0z         97.4713   48.1452  268.0452 h7      1  lig       0.090943
     37 H_10         96.7707   45.9444  267.0243 h8      1  lig       0.075946
     38 H_11         89.5780   48.6109  266.8719 h9      1  lig       0.246038
     39 H_12         95.1002   51.6545  266.8958 hb      1  lig       0.181892
     40 H_13         95.6157   53.8276  267.9300 hd      1  lig       0.158491
     41 H_14         92.1877   50.7543  269.9089 he      1  lig       0.124518
     42 H_15         94.7529   55.6243  270.2202 hf      1  lig       0.197389
     43 H_16         93.0161   55.0955  272.1922 hg      1  lig       0.195600
     44 H_17         92.1536   51.6237  272.3554 hh      1  lig       0.039790
     45 H_18         92.5476   53.6471  274.0500 hi      1  lig       0.083351
     46 H_19         91.1124   52.7122  274.1928 hj      1  lig       0.083351
     47 H_1a         91.2885   54.3558  273.2473 hk      1  lig       0.083351
     48 H_1b         90.5061   51.8838  270.4532 hl      1  lig       0.037733
     49 H_1c         89.8247   53.2499  271.0095 hm      1  lig       0.037733
     50 H_1d         89.6958   51.8977  272.0227 hq      1  lig       0.037733
     51 H_1e         91.4171   47.5177  263.9750 hr      1  lig       0.091777
     52 H_1f         88.2766   45.3843  262.3234 ht      1  lig       0.110027
     53 H_1g         86.9020   45.6504  264.3737 hu      1  lig       0.157541
     54 H_1h         87.8636   45.6303  269.0016 hv      1  lig       0.159106
     55 H_1i         89.4070   46.0138  268.1769 hy      1  lig       0.159106
     56 H_1j         88.3633   44.6962  267.5702 hz      1  lig       0.159106
@<TRIPOS>BOND
     1     1     2    2
     2     1     4    1
     3     1    11    1
     4     2     3    1
     5     2    34    1
     6     3     6    2
     7     3    12    1
     8     4     5    2
     9     4    35    1
    10     5     6    1
    11     5    10    1
    12     6     7    1
    13     7     8    2
    14     8     9    1
    15     8    36    1
    16     9    10    2
    17     9    37    1
    18    11    24    1
    19    11    38    1
    20    12    13    2
    21    12    15    1
    22    13    14    1
    23    13    39    1
    24    14    17    2
    25    14    40    1
    26    15    16    2
    27    15    41    1
    28    16    17    1
    29    16    20    1
    30    17    18    1
    31    18    19    2
    32    18    42    1
    33    19    20    1
    34    19    43    1
    35    20    21    1
    36    21    22    1
    37    21    23    1
    38    21    44    1
    39    22    45    1
    40    22    46    1
    41    22    47    1
    42    23    48    1
    43    23    49    1
    44    23    50    1
    45    24    25    2
    46    24    29    1
    47    25    26    1
    48    25    51    1
    49    26    27    2
    50    27    28    1
    51    27    52    1
    52    28    29    2
    53    28    53    1
    54    29    30    1
    55    30    31    2
    56    30    32    2
    57    30    33    1
    58    33    54    1
    59    33    55    1
    60    33    56    1
