@<TRIPOS>MOLECULE
lig
  50   54 0 0 0
SMALL
NO_CHARGES


@<TRIPOS>ATOM
      1 C_00         91.6118   48.3366  266.6739 c4      1  lig      -0.023581
      2 C_01         91.9698   49.5336  267.2864 c5      1  lig      -0.196308
      3 C_02         93.2850   49.8006  267.6832 c6      1  lig      -0.053394
      4 C_03         92.5678   47.3462  266.4685 c7      1  lig      -0.309935
      5 C_04         93.8944   47.5432  266.9034 c8      1  lig       0.378915
      6 C_05         94.2719   48.7828  267.5077 c9      1  lig       0.287616
      7 N_06         95.5609   48.9661  267.9314 n0      1  lig      -0.389984
      8 C_07         96.4476   47.9576  267.7393 cb      1  lig       0.048621
      9 C_08         96.0612   46.7472  267.1782 ci      1  lig       0.205036
     10 N_09         94.7955   46.5340  266.7522 ng      1  lig      -0.526489
     11 N_0a         90.2745   48.1296  266.3175 nr      1  lig      -0.153246
     12 C_0b         93.5938   51.0998  268.3264 cj      1  lig       0.028041
     13 C_0c         94.5697   51.9459  267.7912 ck      1  lig      -0.318229
     14 C_0d         94.8659   53.1774  268.3682 cm      1  lig       0.231738
     15 C_0e         92.8971   51.4508  269.4842 cn      1  lig      -0.189813
     16 C_0f         93.2083   52.6701  270.0801 co      1  lig      -0.012476
     17 C_0g         94.1610   53.5698  269.5192 cq      1  lig       0.063641
     18 C_0h         94.1614   54.7332  270.3565 cr      1  lig      -0.295014
     19 C_0i         93.2770   54.4957  271.3795 cs      1  lig      -0.232016
     20 N_0j         92.7328   53.2443  271.2449 nw      1  lig       0.059968
     21 C_0k         91.8103   52.6326  272.1899 ct      1  lig      -0.113309
     22 C_0l         89.7167   47.3494  265.2904 cw      1  lig      -0.044742
     23 C_0m         90.4217   47.1254  264.0999 cA      1  lig       0.258165
     24 N_0n         89.9191   46.4337  263.0465 nA      1  lig      -0.508714
     25 C_0o         88.6626   45.9393  263.1648 cB      1  lig       0.154491
     26 C_0p         87.8878   46.0972  264.3127 cC      1  lig      -0.192532
     27 C_0q         88.4240   46.8050  265.3972 cD      1  lig       0.025627
     28 S_0r         87.4806   46.8913  266.9254 s0      1  lig       0.884888
     29 O_0s         86.1391   46.3662  266.6675 o0      1  lig      -0.518867
     30 O_0t         87.6492   48.2412  267.4790 o1      1  lig      -0.541734
     31 C_0u         88.3838   45.6765  268.0468 cE      1  lig      -0.385259
     32 F_0v         95.8038   53.9727  267.8010 f0      1  lig      -0.189841
     33 H_0w         91.2097   50.2861  267.4498 h0      1  lig       0.171398
     34 H_0x         92.2873   46.4001  266.0276 h6      1  lig       0.167449
     35 H_0y         97.4668   48.1419  268.0435 h7      1  lig       0.093389
     36 H_0z         96.7689   45.9467  267.0182 h8      1  lig       0.076113
     37 H_10         89.5852   48.6214  266.8768 h9      1  lig       0.247371
     38 H_11         95.1005   51.6570  266.8939 hb      1  lig       0.200507
     39 H_12         92.1487   50.7992  269.9119 hd      1  lig       0.144809
     40 H_13         94.7728   55.6120  270.2423 he      1  lig       0.192931
     41 H_14         92.9987   55.1122  272.2199 hf      1  lig       0.214701
     42 H_15         90.8758   52.3918  271.6861 hg      1  lig       0.078365
     43 H_16         91.6098   53.2996  273.0302 hh      1  lig       0.078365
     44 H_17         92.2492   51.7136  272.5787 hi      1  lig       0.078365
     45 H_18         91.4224   47.5032  263.9725 hj      1  lig       0.094723
     46 H_19         88.2774   45.3841  262.3232 hk      1  lig       0.111538
     47 H_1a         86.9004   45.6554  264.3643 hl      1  lig       0.156154
     48 H_1b         87.8695   45.6352  269.0056 hm      1  lig       0.154186
     49 H_1c         89.4113   46.0126  268.1793 hq      1  lig       0.154186
     50 H_1d         88.3656   44.6930  267.5796 hr      1  lig       0.154186
@<TRIPOS>BOND
     1     1     2    2
     2     1     4    1
     3     1    11    1
     4     2     3    1
     5     2    33    1
     6     3     6    2
     7     3    12    1
     8     4     5    2
     9     4    34    1
    10     5     6    1
    11     5    10    1
    12     6     7    1
    13     7     8    2
    14     8     9    1
    15     8    35    1
    16     9    10    2
    17     9    36    1
    18    11    22    1
    19    11    37    1
    20    12    13    2
    21    12    15    1
    22    13    14    1
    23    13    38    1
    24    14    17    2
    25    14    32    1
    26    15    16    2
    27    15    39    1
    28    16    17    1
    29    16    20    1
    30    17    18    1
    31    18    19    2
    32    18    40    1
    33    19    20    1
    34    19    41    1
    35    20    21    1
    36    21    42    1
    37    21    43    1
    38    21    44    1
    39    22    23    2
    40    22    27    1
    41    23    24    1
    42    23    45    1
    43    24    25    2
    44    25    26    1
    45    25    46    1
    46    26    27    2
    47    26    47    1
    48    27    28    1
    49    28    29    2
    50    28    30    2
    51    28    31    1
    52    31    48    1
    53    31    49    1
    54    31    50    1
