@<TRIPOS>MOLECULE
lig
  53   57 0 0 0
SMALL
NO_CHARGES


@<TRIPOS>ATOM
      1 C_00         93.2875   49.7899  267.6817 c4      1  lig      -0.073872
      2 C_01         92.5639   47.3419  266.4806 c5      1  lig      -0.328928
      3 C_02         91.6077   48.3343  266.6701 c6      1  lig      -0.014371
      4 C_03         91.9668   49.5310  267.2780 c7      1  lig      -0.186764
      5 C_04         93.8923   47.5378  266.9074 c8      1  lig       0.393808
      6 C_05         94.2733   48.7754  267.5078 c9      1  lig       0.288283
      7 N_06         95.5604   48.9644  267.9352 n0      1  lig      -0.374828
      8 C_07         96.4505   47.9552  267.7478 cb      1  lig       0.022327
      9 C_08         96.0626   46.7471  267.1815 ci      1  lig       0.211374
     10 N_09         94.7984   46.5302  266.7568 ng      1  lig      -0.535054
     11 C_0a         93.5872   51.0916  268.3371 cj      1  lig       0.026359
     12 C_0b         94.5607   51.9338  267.7811 ck      1  lig      -0.303947
     13 C_0c         94.8501   53.1823  268.3498 cm      1  lig       0.070199
     14 C_0d         92.8941   51.4456  269.4876 cn      1  lig      -0.177417
     15 N_0e         90.2744   48.1264  266.3145 nr      1  lig      -0.168182
     16 C_0f         89.7159   47.3451  265.2886 co      1  lig      -0.034251
     17 C_0g         90.4198   47.1284  264.0960 cq      1  lig       0.255918
     18 N_0h         89.9137   46.4353  263.0457 nw      1  lig      -0.513968
     19 C_0i         88.6627   45.9369  263.1677 cr      1  lig       0.178104
     20 C_0j         87.8911   46.0926  264.3161 cs      1  lig      -0.215805
     21 C_0k         88.4236   46.8007  265.4015 ct      1  lig       0.024690
     22 S_0l         87.4795   46.8934  266.9237 s0      1  lig       0.887528
     23 O_0m         86.1396   46.3756  266.6690 o0      1  lig      -0.520494
     24 O_0n         87.6540   48.2479  267.4799 o1      1  lig      -0.543965
     25 C_0o         88.3811   45.6759  268.0440 cw      1  lig      -0.368094
     26 C_0p         93.1885   52.6594  270.0906 cA      1  lig      -0.004874
     27 C_0q         94.1456   53.5742  269.5213 cB      1  lig       0.059447
     28 C_0r         94.1354   54.7290  270.3575 cC      1  lig      -0.287139
     29 C_0s         93.2772   54.4881  271.4048 cD      1  lig      -0.242353
     30 N_0t         92.7219   53.2385  271.2473 nA      1  lig       0.057372
     31 C_0u         91.7905   52.6217  272.1984 cE      1  lig      -0.092467
     32 C_0v         95.8952   54.0681  267.6802 cF      1  lig      -0.203544
     33 H_0w         92.2925   46.4013  266.0331 h0      1  lig       0.171369
     34 H_0x         91.2134   50.2862  267.4482 h6      1  lig       0.167248
     35 H_0y         97.4693   48.1426  268.0450 h7      1  lig       0.096675
     36 H_0z         96.7702   45.9454  267.0266 h8      1  lig       0.076229
     37 H_10         95.0864   51.6342  266.8950 h9      1  lig       0.188320
     38 H_11         92.1681   50.7999  269.9073 hb      1  lig       0.139015
     39 H_12         89.5875   48.6177  266.8787 hd      1  lig       0.253605
     40 H_13         91.4203   47.5082  263.9713 he      1  lig       0.093207
     41 H_14         88.2769   45.3851  262.3238 hf      1  lig       0.103529
     42 H_15         86.9026   45.6536  264.3652 hg      1  lig       0.162285
     43 H_16         87.8674   45.6321  268.9993 hh      1  lig       0.149324
     44 H_17         89.4061   46.0126  268.1806 hi      1  lig       0.149324
     45 H_18         88.3636   44.6924  267.5725 hj      1  lig       0.149324
     46 H_19         94.7512   55.6085  270.2439 hk      1  lig       0.177990
     47 H_1a         93.0100   55.0853  272.2451 hl      1  lig       0.212877
     48 H_1b         92.2515   51.6982  272.5723 hm      1  lig       0.070068
     49 H_1c         90.8611   52.3901  271.6746 hq      1  lig       0.070068
     50 H_1d         91.6098   53.3004  273.0211 hr      1  lig       0.070068
     51 H_1e         96.2694   53.6372  266.7661 ht      1  lig       0.071461
     52 H_1f         96.7532   54.2169  268.3024 hu      1  lig       0.071461
     53 H_1g         95.4728   55.0506  267.4370 hv      1  lig       0.071461
@<TRIPOS>BOND
     1     1     4    1
     2     1     6    2
     3     1    11    1
     4     2     3    1
     5     2     5    2
     6     2    33    1
     7     3     4    2
     8     3    15    1
     9     4    34    1
    10     5     6    1
    11     5    10    1
    12     6     7    1
    13     7     8    2
    14     8     9    1
    15     8    35    1
    16     9    10    2
    17     9    36    1
    18    11    12    2
    19    11    14    1
    20    12    13    1
    21    12    37    1
    22    13    27    2
    23    13    32    1
    24    14    26    2
    25    14    38    1
    26    15    16    1
    27    15    39    1
    28    16    17    2
    29    16    21    1
    30    17    18    1
    31    17    40    1
    32    18    19    2
    33    19    20    1
    34    19    41    1
    35    20    21    2
    36    20    42    1
    37    21    22    1
    38    22    23    2
    39    22    24    2
    40    22    25    1
    41    25    43    1
    42    25    44    1
    43    25    45    1
    44    26    27    1
    45    26    30    1
    46    27    28    1
    47    28    29    2
    48    28    46    1
    49    29    30    1
    50    29    47    1
    51    30    31    1
    52    31    48    1
    53    31    49    1
    54    31    50    1
    55    32    51    1
    56    32    52    1
    57    32    53    1
