@<TRIPOS>MOLECULE
lig
  50   54 0 0 0
SMALL
NO_CHARGES


@<TRIPOS>ATOM
      1 C_00         93.2863   49.8046  267.6850 c4      1  lig      -0.094246
      2 C_01         92.5683   47.3483  266.4663 c5      1  lig      -0.337134
      3 C_02         91.6135   48.3386  266.6756 c6      1  lig      -0.010809
      4 C_03         91.9715   49.5355  267.2896 c7      1  lig      -0.184745
      5 C_04         93.8941   47.5445  266.9029 c8      1  lig       0.407787
      6 C_05         94.2723   48.7844  267.5084 c9      1  lig       0.284847
      7 N_06         95.5616   48.9663  267.9305 n0      1  lig      -0.390661
      8 C_07         96.4473   47.9576  267.7370 cb      1  lig       0.038990
      9 C_08         96.0606   46.7470  267.1769 ci      1  lig       0.210018
     10 N_09         94.7945   46.5353  266.7507 ng      1  lig      -0.535402
     11 C_0a         93.5945   51.1040  268.3281 cj      1  lig       0.088189
     12 C_0b         94.5736   51.9510  267.7909 ck      1  lig      -0.244813
     13 C_0c         94.8742   53.1838  268.3688 cm      1  lig      -0.219094
     14 C_0d         92.8962   51.4518  269.4841 cn      1  lig      -0.200683
     15 N_0e         90.2751   48.1321  266.3186 nr      1  lig      -0.167154
     16 C_0f         89.7173   47.3514  265.2910 co      1  lig      -0.039281
     17 C_0g         90.4223   47.1244  264.1010 cq      1  lig       0.256158
     18 N_0h         89.9202   46.4330  263.0469 nw      1  lig      -0.518099
     19 C_0i         88.6631   45.9395  263.1640 cr      1  lig       0.196276
     20 C_0j         87.8875   46.0982  264.3114 cs      1  lig      -0.228709
     21 C_0k         88.4234   46.8064  265.3954 ct      1  lig       0.026259
     22 S_0l         87.4813   46.8916  266.9240 s0      1  lig       0.902122
     23 O_0m         86.1376   46.3636  266.6658 o0      1  lig      -0.521070
     24 O_0n         87.6482   48.2377  267.4791 o1      1  lig      -0.548649
     25 C_0o         88.3853   45.6716  268.0379 cw      1  lig      -0.384445
     26 C_0p         93.2144   52.6711  270.0767 cA      1  lig       0.007328
     27 C_0q         94.1671   53.5709  269.5134 cB      1  lig       0.189654
     28 C_0r         94.1722   54.7295  270.3422 cC      1  lig      -0.329001
     29 C_0s         93.2836   54.5053  271.3550 cD      1  lig      -0.162014
     30 N_0t         92.7499   53.2450  271.2433 nA      1  lig      -0.045716
     31 C_0u         91.7998   52.6492  272.1755 cE      1  lig       0.314681
     32 F_0v         91.8677   53.3117  273.3272 f0      1  lig      -0.208430
     33 F_0w         90.5872   52.7234  271.6286 f1      1  lig      -0.191228
     34 H_0x         92.2862   46.4014  266.0263 h0      1  lig       0.174947
     35 H_0y         91.2115   50.2889  267.4523 h6      1  lig       0.171157
     36 H_0z         97.4660   48.1411  268.0432 h7      1  lig       0.093167
     37 H_10         96.7683   45.9468  267.0162 h8      1  lig       0.076831
     38 H_11         95.0991   51.6553  266.8907 h9      1  lig       0.182510
     39 H_12         95.6230   53.8288  267.9270 hb      1  lig       0.168484
     40 H_13         92.1446   50.8014  269.9124 hd      1  lig       0.139154
     41 H_14         89.5853   48.6236  266.8775 he      1  lig       0.254724
     42 H_15         91.4232   47.5010  263.9727 hf      1  lig       0.094488
     43 H_16         88.2775   45.3841  262.3232 hg      1  lig       0.099518
     44 H_17         86.8996   45.6560  264.3634 hh      1  lig       0.166179
     45 H_18         87.8728   45.6348  268.9986 hi      1  lig       0.153878
     46 H_19         89.4116   46.0106  268.1755 hj      1  lig       0.153878
     47 H_1a         88.3662   44.6870  267.5758 hk      1  lig       0.153878
     48 H_1b         94.7837   55.6164  270.2260 hl      1  lig       0.191586
     49 H_1c         92.9998   55.1255  272.1927 hm      1  lig       0.229729
     50 H_1d         92.0494   51.6144  272.3981 hq      1  lig       0.134966
@<TRIPOS>BOND
     1     1     4    1
     2     1     6    2
     3     1    11    1
     4     2     3    1
     5     2     5    2
     6     2    34    1
     7     3     4    2
     8     3    15    1
     9     4    35    1
    10     5     6    1
    11     5    10    1
    12     6     7    1
    13     7     8    2
    14     8     9    1
    15     8    36    1
    16     9    10    2
    17     9    37    1
    18    11    12    2
    19    11    14    1
    20    12    13    1
    21    12    38    1
    22    13    27    2
    23    13    39    1
    24    14    26    2
    25    14    40    1
    26    15    16    1
    27    15    41    1
    28    16    17    2
    29    16    21    1
    30    17    18    1
    31    17    42    1
    32    18    19    2
    33    19    20    1
    34    19    43    1
    35    20    21    2
    36    20    44    1
    37    21    22    1
    38    22    23    2
    39    22    24    2
    40    22    25    1
    41    25    45    1
    42    25    46    1
    43    25    47    1
    44    26    27    1
    45    26    30    1
    46    27    28    1
    47    28    29    2
    48    28    48    1
    49    29    30    1
    50    29    49    1
    51    30    31    1
    52    31    32    1
    53    31    33    1
    54    31    50    1
