@<TRIPOS>MOLECULE
lig
  48   52 0 0 0
SMALL
NO_CHARGES


@<TRIPOS>ATOM
      1 N_00         94.8013   46.5214  266.7826 n0      1  lig      -0.532561
      2 N_01         95.5604   48.9616  267.9505 ng      1  lig      -0.373699
      3 C_02         96.4513   47.9564  267.7616 c4      1  lig       0.015188
      4 C_03         96.0690   46.7404  267.2068 c5      1  lig       0.217273
      5 C_04         94.2685   48.7751  267.5275 c6      1  lig       0.283455
      6 C_05         93.8968   47.5294  266.9259 c7      1  lig       0.386992
      7 C_06         92.5695   47.3323  266.4865 c8      1  lig      -0.323001
      8 C_07         91.6129   48.3253  266.6755 c9      1  lig       0.000072
      9 C_08         91.9685   49.5269  267.2835 cb      1  lig      -0.226160
     10 C_09         93.2847   49.7945  267.6974 ci      1  lig      -0.060327
     11 C_0a         93.5894   51.1028  268.3276 cj      1  lig       0.047455
     12 N_0b         90.2782   48.1195  266.3117 nr      1  lig      -0.160561
     13 C_0c         94.5708   51.9469  267.7831 ck      1  lig      -0.190161
     14 C_0d         94.8595   53.1857  268.3749 cm      1  lig      -0.292970
     15 C_0e         92.9123   51.4978  269.4953 cn      1  lig      -0.263811
     16 C_0f         93.2007   52.7289  270.0653 co      1  lig       0.009920
     17 C_0g         94.1307   53.5569  269.5027 cq      1  lig       0.329743
     18 O_0h         94.3320   54.7281  270.1938 o0      1  lig      -0.386552
     19 C_0i         93.3593   54.7303  271.2476 cr      1  lig       0.054975
     20 C_0j         92.7695   53.3637  271.3461 cs      1  lig      -0.044000
     21 C_0k         89.7154   47.3416  265.2852 ct      1  lig      -0.049975
     22 C_0l         90.4167   47.1271  264.0903 cw      1  lig       0.275457
     23 N_0m         89.9109   46.4408  263.0386 nw      1  lig      -0.517105
     24 C_0n         88.6582   45.9328  263.1640 cA      1  lig       0.171032
     25 C_0o         87.8902   46.0836  264.3159 cB      1  lig      -0.206019
     26 C_0p         88.4237   46.7992  265.3955 cC      1  lig       0.022043
     27 S_0q         87.4810   46.9013  266.9181 s0      1  lig       0.892419
     28 O_0r         86.1283   46.4027  266.6622 o1      1  lig      -0.519565
     29 O_0s         87.6749   48.2444  267.4795 o2      1  lig      -0.546002
     30 C_0t         88.3720   45.6610  268.0177 cD      1  lig      -0.386884
     31 H_0u         97.4731   48.1493  268.0540 h0      1  lig       0.098428
     32 H_0v         96.7777   45.9432  267.0489 h6      1  lig       0.075989
     33 H_0w         92.2898   46.3840  266.0487 h7      1  lig       0.168315
     34 H_0x         91.2125   50.2818  267.4334 h8      1  lig       0.177065
     35 H_0y         89.5786   48.5968  266.8753 h9      1  lig       0.254812
     36 H_0z         95.1133   51.6481  266.8964 hb      1  lig       0.181878
     37 H_10         95.6205   53.8235  267.9539 hd      1  lig       0.181490
     38 H_11         92.2001   50.8363  269.9501 he      1  lig       0.169656
     39 H_12         92.5718   55.4402  270.9517 hf      1  lig       0.074269
     40 H_13         93.7774   55.1040  272.1881 hg      1  lig       0.074269
     41 H_14         91.6885   53.3869  271.5159 hh      1  lig       0.050082
     42 H_15         93.2195   52.8220  272.1848 hi      1  lig       0.050082
     43 H_16         91.4074   47.5284  263.9644 hj      1  lig       0.085748
     44 H_17         88.2716   45.3808  262.3215 hk      1  lig       0.106489
     45 H_18         86.9028   45.6381  264.3764 hl      1  lig       0.159436
     46 H_19         87.8533   45.6063  268.9724 hm      1  lig       0.155107
     47 H_1a         89.3975   45.9996  268.1589 hq      1  lig       0.155107
     48 H_1b         88.3561   44.6887  267.5271 hr      1  lig       0.155107
@<TRIPOS>BOND
     1     1     4    1
     2     1     6    2
     3     2     3    1
     4     2     5    2
     5     3     4    2
     6     3    31    1
     7     4    32    1
     8     5     6    1
     9     5    10    1
    10     6     7    1
    11     7     8    2
    12     7    33    1
    13     8     9    1
    14     8    12    1
    15     9    10    2
    16     9    34    1
    17    10    11    1
    18    11    13    2
    19    11    15    1
    20    12    21    1
    21    12    35    1
    22    13    14    1
    23    13    36    1
    24    14    17    2
    25    14    37    1
    26    15    16    2
    27    15    38    1
    28    16    17    1
    29    16    20    1
    30    17    18    1
    31    18    19    1
    32    19    20    1
    33    19    39    1
    34    19    40    1
    35    20    41    1
    36    20    42    1
    37    21    22    2
    38    21    26    1
    39    22    23    1
    40    22    43    1
    41    23    24    2
    42    24    25    1
    43    24    44    1
    44    25    26    2
    45    25    45    1
    46    26    27    1
    47    27    28    2
    48    27    29    2
    49    27    30    1
    50    30    46    1
    51    30    47    1
    52    30    48    1
