@<TRIPOS>MOLECULE
lig
  49   53 0 0 0
SMALL
NO_CHARGES


@<TRIPOS>ATOM
      1 N_00         94.8018   46.5109  266.7810 n0      1  lig      -0.532780
      2 N_01         95.5594   48.9562  267.9425 ng      1  lig      -0.378394
      3 C_02         96.4498   47.9500  267.7562 c4      1  lig       0.020119
      4 C_03         96.0677   46.7343  267.2047 c5      1  lig       0.216145
      5 C_04         94.2682   48.7611  267.5159 c6      1  lig       0.291881
      6 C_05         93.8962   47.5221  266.9192 c7      1  lig       0.389263
      7 C_06         92.5694   47.3244  266.4788 c8      1  lig      -0.323885
      8 C_07         91.6134   48.3190  266.6708 c9      1  lig      -0.004902
      9 C_08         91.9660   49.5150  267.2751 cb      1  lig      -0.196365
     10 C_09         93.2855   49.7790  267.6840 ci      1  lig      -0.075943
     11 C_0a         93.5879   51.0782  268.3122 cj      1  lig       0.030130
     12 N_0b         90.2737   48.1142  266.3097 nr      1  lig      -0.175863
     13 C_0c         94.5752   51.9225  267.7816 ck      1  lig      -0.207051
     14 C_0d         94.8653   53.1505  268.3816 cm      1  lig      -0.279350
     15 C_0e         92.8985   51.4691  269.4627 cn      1  lig      -0.199337
     16 C_0f         89.7155   47.3452  265.2853 co      1  lig      -0.046593
     17 C_0g         90.4138   47.1285  264.0886 cq      1  lig       0.278114
     18 N_0h         89.9106   46.4419  263.0368 nw      1  lig      -0.519685
     19 C_0i         88.6568   45.9347  263.1618 cr      1  lig       0.175797
     20 C_0j         87.8875   46.0867  264.3143 cs      1  lig      -0.208092
     21 C_0k         88.4223   46.8005  265.3926 ct      1  lig       0.021732
     22 S_0l         87.4801   46.8993  266.9179 s0      1  lig       0.902102
     23 O_0m         86.1285   46.4001  266.6610 o0      1  lig      -0.522220
     24 O_0n         87.6734   48.2433  267.4795 o1      1  lig      -0.549261
     25 C_0o         88.3715   45.6618  268.0181 cw      1  lig      -0.382228
     26 C_0p         93.1809   52.6785  270.0639 cA      1  lig       0.158332
     27 C_0q         94.1584   53.5252  269.5157 cB      1  lig       0.297823
     28 O_0r         94.4333   54.7672  270.0482 o2      1  lig      -0.385262
     29 C_0s         94.0133   54.9117  271.4001 cC      1  lig       0.072677
     30 C_0t         92.5929   54.3553  271.5885 cD      1  lig       0.054521
     31 O_0u         92.5255   52.9762  271.2421 o3      1  lig      -0.356039
     32 H_0v         97.4701   48.1438  268.0547 h0      1  lig       0.097399
     33 H_0w         96.7793   45.9370  267.0484 h6      1  lig       0.075588
     34 H_0x         92.2874   46.3752  266.0453 h7      1  lig       0.170195
     35 H_0y         91.2144   50.2757  267.4253 h8      1  lig       0.172587
     36 H_0z         89.5843   48.5996  266.8791 h9      1  lig       0.262527
     37 H_10         95.1184   51.6380  266.8951 hb      1  lig       0.184350
     38 H_11         95.6084   53.8097  267.9625 hd      1  lig       0.180508
     39 H_12         92.1529   50.8186  269.9099 he      1  lig       0.156479
     40 H_13         91.4082   47.5286  263.9600 hf      1  lig       0.084515
     41 H_14         88.2722   45.3793  262.3200 hg      1  lig       0.104865
     42 H_15         86.9047   45.6369  264.3728 hh      1  lig       0.159108
     43 H_16         88.3558   44.6887  267.5313 hi      1  lig       0.153613
     44 H_17         87.8534   45.6061  268.9764 hj      1  lig       0.153613
     45 H_18         89.3985   45.9973  268.1617 hk      1  lig       0.153613
     46 H_19         94.6915   54.3763  272.0652 hl      1  lig       0.079994
     47 H_1a         94.0495   55.9651  271.6740 hm      1  lig       0.079994
     48 H_1b         91.9903   54.9200  270.8846 hq      1  lig       0.082833
     49 H_1c         92.1930   54.5411  272.5852 hr      1  lig       0.082833
@<TRIPOS>BOND
     1     1     4    1
     2     1     6    2
     3     2     3    1
     4     2     5    2
     5     3     4    2
     6     3    32    1
     7     4    33    1
     8     5     6    1
     9     5    10    1
    10     6     7    1
    11     7     8    2
    12     7    34    1
    13     8     9    1
    14     8    12    1
    15     9    10    2
    16     9    35    1
    17    10    11    1
    18    11    13    2
    19    11    15    1
    20    12    16    1
    21    12    36    1
    22    13    14    1
    23    13    37    1
    24    14    27    2
    25    14    38    1
    26    15    26    2
    27    15    39    1
    28    16    17    2
    29    16    21    1
    30    17    18    1
    31    17    40    1
    32    18    19    2
    33    19    20    1
    34    19    41    1
    35    20    21    2
    36    20    42    1
    37    21    22    1
    38    22    23    2
    39    22    24    2
    40    22    25    1
    41    25    43    1
    42    25    44    1
    43    25    45    1
    44    26    27    1
    45    26    31    1
    46    27    28    1
    47    28    29    1
    48    29    30    1
    49    29    46    1
    50    29    47    1
    51    30    31    1
    52    30    48    1
    53    30    49    1
