@<TRIPOS>MOLECULE
lig
  54   58 0 0 0
SMALL
NO_CHARGES


@<TRIPOS>ATOM
      1 C_00         92.6660   47.2613  266.3406 c4      1  lig      -0.205334
      2 C_01         91.6770   48.2220  266.5146 c5      1  lig      -0.012389
      3 C_02         91.9879   49.4167  267.1425 c6      1  lig      -0.168847
      4 C_03         93.2709   49.6946  267.6279 c7      1  lig      -0.080297
      5 C_04         93.9719   47.4800  266.8354 c8      1  lig       0.290656
      6 C_05         94.2913   48.7152  267.4805 c9      1  lig       0.328850
      7 N_06         95.5450   48.9221  267.9883 n0      1  lig      -0.398432
      8 C_07         96.4599   47.9343  267.8372 cb      1  lig       0.032523
      9 C_08         96.1350   46.7275  267.2279 ci      1  lig       0.217240
     10 N_09         94.9013   46.4918  266.7230 ng      1  lig      -0.519720
     11 N_0a         90.3487   47.9881  266.1437 nr      1  lig      -0.329168
     12 C_0b         89.8102   47.2444  265.0862 cj      1  lig       0.046669
     13 C_0c         90.5239   47.0994  263.8922 ck      1  lig       0.248749
     14 N_0d         90.0430   46.4477  262.8068 nw      1  lig      -0.509824
     15 C_0e         88.8025   45.9112  262.8993 cm      1  lig       0.162438
     16 C_0f         88.0213   45.9914  264.0502 cn      1  lig      -0.235760
     17 C_0g         88.5247   46.6790  265.1618 co      1  lig       0.041453
     18 S_0h         87.5572   46.7485  266.6776 s0      1  lig       0.838982
     19 O_0i         87.9494   45.5860  267.4786 o0      1  lig      -0.505920
     20 O_0j         87.7078   48.0995  267.2278 o1      1  lig      -0.536293
     21 C_0k         85.7583   46.5374  266.1602 cq      1  lig      -0.356401
     22 C_0l         93.4545   50.9305  268.4147 cr      1  lig       0.038273
     23 C_0m         94.4202   51.9117  268.1364 cs      1  lig      -0.220636
     24 C_0n         94.4695   53.0834  268.9040 ct      1  lig      -0.223192
     25 C_0o         92.5838   51.1138  269.4835 cw      1  lig      -0.234474
     26 C_0p         92.6365   52.2501  270.2532 cA      1  lig      -0.052145
     27 C_0q         93.5640   53.2265  269.9558 cB      1  lig       0.280871
     28 O_0r         93.4148   54.3422  270.7273 o2      1  lig      -0.388655
     29 C_0s         92.4599   54.0057  271.7365 cC      1  lig       0.016652
     30 C_0t         91.7186   52.6858  271.3365 cD      1  lig       0.298887
     31 C_0u         91.6600   51.7353  272.5275 cE      1  lig      -0.338725
     32 C_0v         90.2882   52.7274  270.7487 cF      1  lig      -0.210423
     33 H_0w         92.4190   46.3273  265.8706 h0      1  lig       0.158060
     34 H_0x         91.1990   50.1424  267.2856 h6      1  lig       0.146882
     35 H_0y         97.4509   48.1344  268.2160 h7      1  lig       0.100377
     36 H_0z         96.8601   45.9347  267.1210 h8      1  lig       0.077127
     37 H_10         89.6448   48.3730  266.7646 h9      1  lig       0.340648
     38 H_11         91.5092   47.5215  263.7899 hb      1  lig       0.079724
     39 H_12         88.4352   45.3922  262.0288 hd      1  lig       0.106501
     40 H_13         87.0510   45.5181  264.0657 he      1  lig       0.165798
     41 H_14         85.1315   46.6853  267.0371 hf      1  lig       0.144282
     42 H_15         85.6122   45.5261  265.7792 hg      1  lig       0.144282
     43 H_16         85.5191   47.2723  265.3933 hh      1  lig       0.144282
     44 H_17         95.1056   51.7814  267.3114 hi      1  lig       0.185562
     45 H_18         95.1829   53.8593  268.6701 hj      1  lig       0.164941
     46 H_19         91.8355   50.3646  269.6999 hk      1  lig       0.173358
     47 H_1a         91.8441   54.8559  272.0034 hl      1  lig       0.075680
     48 H_1b         93.0585   53.8331  272.6315 hm      1  lig       0.075680
     49 H_1c         92.6717   51.5280  272.8282 hq      1  lig       0.081260
     50 H_1d         91.1837   50.7813  272.3000 hr      1  lig       0.081260
     51 H_1e         91.1571   52.1856  273.3830 ht      1  lig       0.081260
     52 H_1f         90.2017   53.5269  270.0147 hu      1  lig       0.052476
     53 H_1g         89.5374   52.9139  271.5165 hv      1  lig       0.052476
     54 H_1h         89.9978   51.8184  270.2314 hy      1  lig       0.052476
@<TRIPOS>BOND
     1     1     2    2
     2     1     5    1
     3     1    33    1
     4     2     3    1
     5     2    11    1
     6     3     4    2
     7     3    34    1
     8     4     6    1
     9     4    22    1
    10     5     6    1
    11     5    10    2
    12     6     7    2
    13     7     8    1
    14     8     9    2
    15     8    35    1
    16     9    10    1
    17     9    36    1
    18    11    12    1
    19    11    37    1
    20    12    13    2
    21    12    17    1
    22    13    14    1
    23    13    38    1
    24    14    15    2
    25    15    16    1
    26    15    39    1
    27    16    17    2
    28    16    40    1
    29    17    18    1
    30    18    19    2
    31    18    20    2
    32    18    21    1
    33    21    41    1
    34    21    42    1
    35    21    43    1
    36    22    23    2
    37    22    25    1
    38    23    24    1
    39    23    44    1
    40    24    27    2
    41    24    45    1
    42    25    26    2
    43    25    46    1
    44    26    27    1
    45    26    30    1
    46    27    28    1
    47    28    29    1
    48    29    30    1
    49    29    47    1
    50    29    48    1
    51    30    31    1
    52    30    32    1
    53    31    49    1
    54    31    50    1
    55    31    51    1
    56    32    52    1
    57    32    53    1
    58    32    54    1
