@<TRIPOS>MOLECULE
lig
  44   48 0 0 0
SMALL
NO_CHARGES


@<TRIPOS>ATOM
      1 C_00         92.5616   47.3431  266.4810 c4      1  lig      -0.235015
      2 C_01         91.6083   48.3378  266.6788 c5      1  lig      -0.022721
      3 C_02         91.9675   49.5360  267.2894 c6      1  lig      -0.181770
      4 C_03         93.2833   49.8036  267.6841 c7      1  lig      -0.056287
      5 C_04         93.8906   47.5426  266.9050 c8      1  lig       0.325490
      6 C_05         94.2692   48.7834  267.5054 c9      1  lig       0.294815
      7 N_06         95.5582   48.9676  267.9253 n0      1  lig      -0.397395
      8 C_07         96.4459   47.9593  267.7336 cb      1  lig       0.037257
      9 C_08         96.0546   46.7511  267.1656 ci      1  lig       0.217241
     10 N_09         94.7960   46.5357  266.7462 ng      1  lig      -0.520312
     11 C_0a         93.6000   51.1078  268.3203 cj      1  lig       0.041356
     12 N_0b         90.2728   48.1334  266.3179 nr      1  lig      -0.221514
     13 C_0c         94.5796   51.9508  267.7841 ck      1  lig      -0.110887
     14 C_0d         94.8793   53.1855  268.3642 cm      1  lig      -0.454188
     15 C_0e         92.9122   51.4860  269.4818 cn      1  lig      -0.319787
     16 C_0f         93.2219   52.7049  270.0921 co      1  lig       0.376967
     17 C_0g         94.1726   53.5723  269.5148 cq      1  lig       0.529773
     18 N_0h         94.2452   54.7250  270.2335 nw      1  lig      -0.383425
     19 O_0i         93.3558   54.4935  271.2868 o0      1  lig       0.033007
     20 N_0j         92.7185   53.2485  271.2321 nA      1  lig      -0.354150
     21 C_0k         89.7162   47.3504  265.2906 cr      1  lig      -0.033684
     22 C_0l         88.4248   46.8034  265.3985 cs      1  lig       0.018516
     23 C_0m         87.8890   46.0969  264.3132 ct      1  lig      -0.206198
     24 C_0n         88.6624   45.9387  263.1651 cw      1  lig       0.181176
     25 N_0o         89.9162   46.4364  263.0442 nB      1  lig      -0.519094
     26 C_0p         90.4181   47.1285  264.0963 cA      1  lig       0.274157
     27 S_0q         87.4804   46.8895  266.9250 s0      1  lig       0.907523
     28 C_0r         88.3878   45.6691  268.0379 cB      1  lig      -0.394133
     29 O_0s         86.1403   46.3593  266.6660 o1      1  lig      -0.519191
     30 O_0t         87.6424   48.2387  267.4798 o2      1  lig      -0.548715
     31 H_0u         92.2854   46.3950  266.0421 h0      1  lig       0.155171
     32 H_0v         91.2053   50.2860  267.4565 h6      1  lig       0.175645
     33 H_0w         97.4627   48.1378  268.0449 h7      1  lig       0.104278
     34 H_0x         96.7700   45.9486  267.0128 h8      1  lig       0.081442
     35 H_0y         89.5943   48.6264  266.8885 h9      1  lig       0.281752
     36 H_0z         95.1084   51.6478  266.8879 hb      1  lig       0.180856
     37 H_10         95.6245   53.8350  267.9323 hd      1  lig       0.236399
     38 H_11         92.1553   50.8472  269.9070 he      1  lig       0.198671
     39 H_12         86.8985   45.6634  264.3535 hf      1  lig       0.160418
     40 H_13         88.2735   45.3947  262.3179 hg      1  lig       0.106459
     41 H_14         91.4051   47.5333  263.9482 hh      1  lig       0.086433
     42 H_15         87.8829   45.6238  268.9999 hi      1  lig       0.157888
     43 H_16         89.4189   45.9985  268.1656 hj      1  lig       0.157888
     44 H_17         88.3528   44.6799  267.5881 hk      1  lig       0.157888
@<TRIPOS>BOND
     1     1     2    2
     2     1     5    1
     3     1    31    1
     4     2     3    1
     5     2    12    1
     6     3     4    2
     7     3    32    1
     8     4     6    1
     9     4    11    1
    10     5     6    1
    11     5    10    2
    12     6     7    2
    13     7     8    1
    14     8     9    2
    15     8    33    1
    16     9    10    1
    17     9    34    1
    18    11    13    1
    19    11    15    2
    20    12    21    1
    21    12    35    1
    22    13    14    2
    23    13    36    1
    24    14    17    1
    25    14    37    1
    26    15    16    1
    27    15    38    1
    28    16    17    1
    29    16    20    2
    30    17    18    2
    31    18    19    1
    32    19    20    1
    33    21    22    2
    34    21    26    1
    35    22    23    1
    36    22    27    1
    37    23    24    2
    38    23    39    1
    39    24    25    1
    40    24    40    1
    41    25    26    2
    42    26    41    1
    43    27    28    1
    44    27    29    2
    45    27    30    2
    46    28    42    1
    47    28    43    1
    48    28    44    1
