@<TRIPOS>MOLECULE
lig
  44   48 0 0 0
SMALL
NO_CHARGES


@<TRIPOS>ATOM
      1 C_00         92.5635   47.3408  266.4808 c4      1  lig      -0.236726
      2 C_01         91.6075   48.3335  266.6743 c5      1  lig      -0.023898
      3 C_02         91.9695   49.5319  267.2848 c6      1  lig      -0.166303
      4 C_03         93.2834   49.7950  267.6878 c7      1  lig      -0.073773
      5 C_04         93.8922   47.5381  266.9103 c8      1  lig       0.318615
      6 C_05         94.2715   48.7791  267.5122 c9      1  lig       0.311385
      7 N_06         95.5600   48.9654  267.9352 n0      1  lig      -0.400749
      8 C_07         96.4479   47.9572  267.7463 cb      1  lig       0.036783
      9 C_08         96.0599   46.7469  267.1846 ci      1  lig       0.214150
     10 N_09         94.7947   46.5302  266.7602 ng      1  lig      -0.520117
     11 C_0a         93.5954   51.0976  268.3318 cj      1  lig       0.031119
     12 N_0b         90.2720   48.1244  266.3145 nr      1  lig      -0.231956
     13 C_0c         94.5752   51.9450  267.7933 ck      1  lig      -0.140438
     14 C_0d         94.8768   53.1820  268.3621 cm      1  lig      -0.361010
     15 C_0e         92.9001   51.4735  269.4880 cn      1  lig      -0.245861
     16 C_0f         93.1999   52.6985  270.0791 co      1  lig       0.319923
     17 C_0g         94.1534   53.5481  269.5013 cq      1  lig       0.431063
     18 N_0h         94.3301   54.7275  270.1391 nw      1  lig      -0.470216
     19 S_0i         93.3222   54.6345  271.4618 s0      1  lig       0.334127
     20 N_0j         92.6192   53.1453  271.2154 nA      1  lig      -0.451523
     21 C_0k         89.7145   47.3441  265.2879 cr      1  lig      -0.032603
     22 C_0l         88.4225   46.8014  265.3965 cs      1  lig       0.018956
     23 C_0m         87.8867   46.0933  264.3141 ct      1  lig      -0.207052
     24 C_0n         88.6573   45.9409  263.1630 cw      1  lig       0.180446
     25 N_0o         89.9107   46.4413  263.0402 nB      1  lig      -0.520619
     26 C_0p         90.4172   47.1261  264.0958 cA      1  lig       0.277008
     27 S_0q         87.4804   46.8886  266.9234 s1      1  lig       0.906869
     28 C_0r         88.3814   45.6524  268.0226 cB      1  lig      -0.393317
     29 O_0s         86.1349   46.3742  266.6655 o0      1  lig      -0.520354
     30 O_0t         87.6601   48.2354  267.4816 o1      1  lig      -0.549660
     31 H_0u         92.2828   46.3935  266.0450 h0      1  lig       0.154755
     32 H_0v         91.2085   50.2841  267.4433 h6      1  lig       0.168986
     33 H_0w         97.4692   48.1447  268.0448 h7      1  lig       0.103252
     34 H_0x         96.7697   45.9473  267.0232 h8      1  lig       0.080766
     35 H_0y         89.5800   48.6088  266.8767 h9      1  lig       0.287785
     36 H_0z         95.1051   51.6472  266.8997 hb      1  lig       0.179374
     37 H_10         95.6283   53.8309  267.9272 hd      1  lig       0.201106
     38 H_11         92.1531   50.8275  269.9218 he      1  lig       0.164498
     39 H_12         86.9004   45.6524  264.3687 hf      1  lig       0.160087
     40 H_13         88.2720   45.3899  262.3191 hg      1  lig       0.105769
     41 H_14         91.4083   47.5277  263.9633 hh      1  lig       0.086034
     42 H_15         87.8668   45.5727  268.9784 hi      1  lig       0.157773
     43 H_16         89.4077   45.9918  268.1612 hj      1  lig       0.157773
     44 H_17         88.3602   44.6759  267.5447 hk      1  lig       0.157773
@<TRIPOS>BOND
     1     1     2    2
     2     1     5    1
     3     1    31    1
     4     2     3    1
     5     2    12    1
     6     3     4    2
     7     3    32    1
     8     4     6    1
     9     4    11    1
    10     5     6    1
    11     5    10    2
    12     6     7    2
    13     7     8    1
    14     8     9    2
    15     8    33    1
    16     9    10    1
    17     9    34    1
    18    11    13    1
    19    11    15    2
    20    12    21    1
    21    12    35    1
    22    13    14    2
    23    13    36    1
    24    14    17    1
    25    14    37    1
    26    15    16    1
    27    15    38    1
    28    16    17    1
    29    16    20    2
    30    17    18    2
    31    18    19    1
    32    19    20    1
    33    21    22    2
    34    21    26    1
    35    22    23    1
    36    22    27    1
    37    23    24    2
    38    23    39    1
    39    24    25    1
    40    24    40    1
    41    25    26    2
    42    26    41    1
    43    27    28    1
    44    27    29    2
    45    27    30    2
    46    28    42    1
    47    28    43    1
    48    28    44    1
