@<TRIPOS>MOLECULE
lig
  45   49 0 0 0
SMALL
NO_CHARGES


@<TRIPOS>ATOM
      1 C_00         92.5649   47.3357  266.4780 c4      1  lig      -0.246350
      2 C_01         91.6096   48.3267  266.6685 c5      1  lig      -0.016906
      3 C_02         91.9706   49.5255  267.2755 c6      1  lig      -0.212583
      4 C_03         93.2850   49.7849  267.6888 c7      1  lig      -0.076888
      5 C_04         93.8962   47.5315  266.9149 c8      1  lig       0.319618
      6 C_05         94.2730   48.7725  267.5157 c9      1  lig       0.336279
      7 N_06         95.5623   48.9611  267.9440 n0      1  lig      -0.411927
      8 C_07         96.4530   47.9549  267.7607 cb      1  lig       0.037207
      9 C_08         96.0604   46.7398  267.2043 ci      1  lig       0.206781
     10 N_09         94.8009   46.5220  266.7799 ng      1  lig      -0.520137
     11 C_0a         93.5830   51.0799  268.3394 cj      1  lig       0.004698
     12 C_0b         94.5627   51.9319  267.8062 ck      1  lig      -0.172281
     13 C_0c         94.8597   53.1715  268.3735 cm      1  lig      -0.292750
     14 C_0d         92.8765   51.4421  269.4881 cn      1  lig      -0.184760
     15 C_0e         93.1675   52.6783  270.0741 co      1  lig      -0.065506
     16 C_0f         94.1347   53.5526  269.5062 cq      1  lig       0.485974
     17 N_0g         94.3115   54.7222  270.1528 nr      1  lig      -0.563564
     18 C_0h         93.5858   54.7561  271.2381 cr      1  lig       0.151601
     19 S_0i         92.5123   53.4088  271.5255 s0      1  lig      -0.088523
     20 N_0j         90.2698   48.1142  266.3113 nw      1  lig      -0.195609
     21 C_0k         89.7130   47.3380  265.2849 cs      1  lig      -0.036043
     22 C_0l         88.4197   46.7984  265.3938 ct      1  lig       0.026278
     23 C_0m         87.8833   46.0898  264.3143 cw      1  lig      -0.209633
     24 C_0n         88.6520   45.9437  263.1599 cA      1  lig       0.177807
     25 N_0o         89.9057   46.4470  263.0359 nA      1  lig      -0.519273
     26 C_0p         90.4150   47.1276  264.0943 cB      1  lig       0.267388
     27 S_0q         87.4814   46.8888  266.9221 s1      1  lig       0.895908
     28 O_0r         86.1277   46.3901  266.6642 o0      1  lig      -0.520163
     29 O_0s         87.6791   48.2295  267.4834 o1      1  lig      -0.545063
     30 C_0t         88.3741   45.6337  268.0075 cC      1  lig      -0.385407
     31 H_0u         92.2772   46.3870  266.0471 h0      1  lig       0.152122
     32 H_0v         91.2167   50.2829  267.4282 h6      1  lig       0.178941
     33 H_0w         97.4752   48.1511  268.0450 h7      1  lig       0.102724
     34 H_0x         96.7724   45.9411  267.0337 h8      1  lig       0.081354
     35 H_0y         95.0979   51.6435  266.9149 h9      1  lig       0.183576
     36 H_0z         95.6126   53.8190  267.9423 hb      1  lig       0.182993
     37 H_10         92.1404   50.7736  269.9238 hd      1  lig       0.208044
     38 H_11         93.6220   55.5864  271.9137 he      1  lig       0.178197
     39 H_12         89.5638   48.5895  266.8627 hf      1  lig       0.264965
     40 H_13         86.9016   45.6396  264.3864 hg      1  lig       0.160228
     41 H_14         88.2700   45.3840  262.3199 hh      1  lig       0.106010
     42 H_15         91.4114   47.5220  263.9807 hi      1  lig       0.091695
     43 H_16         87.8479   45.5178  268.9549 hj      1  lig       0.154326
     44 H_17         89.3964   45.9846  268.1559 hk      1  lig       0.154326
     45 H_18         88.3682   44.6731  267.4983 hl      1  lig       0.154326
@<TRIPOS>BOND
     1     1     2    2
     2     1     5    1
     3     1    31    1
     4     2     3    1
     5     2    20    1
     6     3     4    2
     7     3    32    1
     8     4     6    1
     9     4    11    1
    10     5     6    1
    11     5    10    2
    12     6     7    2
    13     7     8    1
    14     8     9    2
    15     8    33    1
    16     9    10    1
    17     9    34    1
    18    11    12    2
    19    11    14    1
    20    12    13    1
    21    12    35    1
    22    13    16    2
    23    13    36    1
    24    14    15    2
    25    14    37    1
    26    15    16    1
    27    15    19    1
    28    16    17    1
    29    17    18    2
    30    18    19    1
    31    18    38    1
    32    20    21    1
    33    20    39    1
    34    21    22    2
    35    21    26    1
    36    22    23    1
    37    22    27    1
    38    23    24    2
    39    23    40    1
    40    24    25    1
    41    24    41    1
    42    25    26    2
    43    26    42    1
    44    27    28    2
    45    27    29    2
    46    27    30    1
    47    30    43    1
    48    30    44    1
    49    30    45    1
