@<TRIPOS>MOLECULE
lig
  45   49 0 0 0
SMALL
NO_CHARGES


@<TRIPOS>ATOM
      1 C_00         93.2872   49.7956  267.6944 c4      1  lig      -0.059489
      2 C_01         92.5687   47.3376  266.4857 c5      1  lig      -0.327619
      3 C_02         91.6146   48.3304  266.6749 c6      1  lig      -0.004742
      4 C_03         91.9729   49.5341  267.2820 c7      1  lig      -0.200995
      5 C_04         93.8980   47.5350  266.9247 c8      1  lig       0.395582
      6 C_05         94.2694   48.7811  267.5256 c9      1  lig       0.274635
      7 N_06         95.5628   48.9608  267.9474 n0      1  lig      -0.371452
      8 C_07         96.4512   47.9559  267.7583 cb      1  lig       0.023159
      9 C_08         96.0630   46.7394  267.2050 ci      1  lig       0.217068
     10 N_09         94.7992   46.5230  266.7822 ng      1  lig      -0.533424
     11 C_0a         89.7144   47.3441  265.2867 cj      1  lig      -0.054370
     12 C_0b         90.4092   47.1460  264.0888 ck      1  lig       0.272079
     13 N_0c         89.9096   46.4507  263.0377 nr      1  lig      -0.520792
     14 C_0d         88.6543   45.9413  263.1621 cm      1  lig       0.188948
     15 C_0e         87.8854   46.0879  264.3158 cn      1  lig      -0.212857
     16 C_0f         88.4232   46.7977  265.3980 co      1  lig       0.021870
     17 S_0g         87.4784   46.8853  266.9220 s0      1  lig       0.902981
     18 O_0h         86.1276   46.3963  266.6637 o0      1  lig      -0.521747
     19 C_0i         88.3703   45.6287  268.0030 cq      1  lig      -0.384542
     20 O_0j         87.6748   48.2291  267.4909 o1      1  lig      -0.546088
     21 N_0k         90.2732   48.1194  266.3138 nw      1  lig      -0.167543
     22 C_0l         93.5885   51.1029  268.3430 cr      1  lig       0.056874
     23 C_0m         94.5710   51.9460  267.8128 cs      1  lig      -0.236911
     24 C_0n         94.8648   53.1857  268.4025 ct      1  lig      -0.222360
     25 C_0o         92.8911   51.4690  269.4891 cw      1  lig      -0.237652
     26 C_0p         93.1676   52.6956  270.0909 cA      1  lig       0.412290
     27 C_0q         94.1496   53.5503  269.5479 cB      1  lig       0.002596
     28 S_0r         94.2519   54.9826  270.5782 s1      1  lig      -0.091848
     29 C_0s         93.0165   54.3044  271.5748 cC      1  lig       0.148367
     30 N_0t         92.5431   53.1496  271.2157 nA      1  lig      -0.554787
     31 H_0u         92.2833   46.3865  266.0492 h0      1  lig       0.173524
     32 H_0v         91.2132   50.2842  267.4310 h6      1  lig       0.175931
     33 H_0w         97.4754   48.1488  268.0479 h7      1  lig       0.095727
     34 H_0x         96.7730   45.9425  267.0419 h8      1  lig       0.076141
     35 H_0y         91.4107   47.5214  263.9722 h9      1  lig       0.089037
     36 H_0z         88.2682   45.3847  262.3195 hb      1  lig       0.100700
     37 H_10         86.9002   45.6358  264.3812 hd      1  lig       0.161488
     38 H_11         87.8462   45.5122  268.9561 he      1  lig       0.154720
     39 H_12         89.3922   45.9759  268.1641 hf      1  lig       0.154720
     40 H_13         88.3733   44.6715  267.4858 hg      1  lig       0.154720
     41 H_14         89.5715   48.5931  266.8725 hh      1  lig       0.258558
     42 H_15         95.0968   51.6566  266.9236 hi      1  lig       0.180301
     43 H_16         95.6212   53.8241  267.9680 hj      1  lig       0.215711
     44 H_17         92.1446   50.8081  269.9236 hk      1  lig       0.162829
     45 H_18         92.6755   54.8393  272.4460 hl      1  lig       0.178662
@<TRIPOS>BOND
     1     1     4    1
     2     1     6    2
     3     1    22    1
     4     2     3    1
     5     2     5    2
     6     2    31    1
     7     3     4    2
     8     3    21    1
     9     4    32    1
    10     5     6    1
    11     5    10    1
    12     6     7    1
    13     7     8    2
    14     8     9    1
    15     8    33    1
    16     9    10    2
    17     9    34    1
    18    11    12    2
    19    11    16    1
    20    11    21    1
    21    12    13    1
    22    12    35    1
    23    13    14    2
    24    14    15    1
    25    14    36    1
    26    15    16    2
    27    15    37    1
    28    16    17    1
    29    17    18    2
    30    17    19    1
    31    17    20    2
    32    19    38    1
    33    19    39    1
    34    19    40    1
    35    21    41    1
    36    22    23    2
    37    22    25    1
    38    23    24    1
    39    23    42    1
    40    24    27    2
    41    24    43    1
    42    25    26    2
    43    25    44    1
    44    26    27    1
    45    26    30    1
    46    27    28    1
    47    28    29    1
    48    29    30    2
    49    29    45    1
