@<TRIPOS>MOLECULE
lig
  47   51 0 0 0
SMALL
NO_CHARGES


@<TRIPOS>ATOM
      1 C_00         93.1004   49.7216  267.7155 c4      1  lig      -0.089855
      2 C_01         92.5890   47.2745  266.3896 c5      1  lig      -0.335902
      3 C_02         91.5683   48.2049  266.5759 c6      1  lig       0.000120
      4 C_03         91.8300   49.4026  267.2297 c7      1  lig      -0.184466
      5 C_04         93.8878   47.5400  266.8820 c8      1  lig       0.397766
      6 C_05         94.1599   48.7802  267.5411 c9      1  lig       0.282163
      7 N_06         95.4145   49.0346  268.0280 n0      1  lig      -0.361745
      8 C_07         96.3713   48.0905  267.8536 cb      1  lig       0.014863
      9 C_08         96.0910   46.8809  267.2282 ci      1  lig       0.218862
     10 N_09         94.8599   46.5971  266.7393 ng      1  lig      -0.536084
     11 C_0a         93.2846   50.9778  268.4857 cj      1  lig       0.065073
     12 C_0b         94.2454   51.9199  268.1045 ck      1  lig      -0.250470
     13 C_0c         94.4590   53.0941  268.8278 cm      1  lig      -0.207165
     14 C_0d         92.5073   51.1876  269.6303 cn      1  lig      -0.149595
     15 N_0e         90.2493   47.9429  266.1975 nr      1  lig      -0.166168
     16 C_0f         89.6938   47.1846  265.1577 co      1  lig      -0.050671
     17 C_0g         90.3836   46.9926  263.9558 cq      1  lig       0.263769
     18 N_0h         89.8604   46.3316  262.8928 nw      1  lig      -0.519741
     19 C_0i         88.6069   45.8318  263.0224 cr      1  lig       0.191017
     20 C_0j         87.8451   45.9660  264.1837 cs      1  lig      -0.215905
     21 C_0k         88.3928   46.6627  265.2677 ct      1  lig       0.020425
     22 S_0l         87.4640   46.8258  266.7979 s0      1  lig       0.898419
     23 O_0m         87.6173   48.2190  267.2276 o0      1  lig      -0.546442
     24 O_0n         86.1278   46.2817  266.5368 o1      1  lig      -0.521565
     25 C_0o         88.2895   45.7139  268.0726 cw      1  lig      -0.379595
     26 C_0p         92.7122   52.3451  270.3867 cA      1  lig       0.232611
     27 C_0q         93.6742   53.3006  269.9675 cB      1  lig       0.013666
     28 S_0r         93.6619   54.6467  271.0869 s1      1  lig      -0.113464
     29 C_0s         92.4847   53.7751  272.0143 cC      1  lig       0.504950
     30 N_0t         92.0618   52.6441  271.5401 nA      1  lig      -0.537321
     31 N_0u         92.0618   54.3270  273.1729 nB      1  lig      -0.831273
     32 H_0v         92.3771   46.3274  265.9191 h0      1  lig       0.175307
     33 H_0w         91.0166   50.1019  267.3766 h6      1  lig       0.161045
     34 H_0x         97.3578   48.3186  268.2289 h7      1  lig       0.096273
     35 H_0y         96.8555   46.1283  267.0976 h8      1  lig       0.075424
     36 H_0z         94.8420   51.7360  267.2204 h9      1  lig       0.174450
     37 H_10         95.2043   53.8135  268.5140 hb      1  lig       0.211487
     38 H_11         91.7753   50.4604  269.9472 hd      1  lig       0.137646
     39 H_12         89.5427   48.3411  266.8073 he      1  lig       0.261690
     40 H_13         91.3786   47.3860  263.8271 hf      1  lig       0.092059
     41 H_14         88.2110   45.2945  262.1738 hg      1  lig       0.099514
     42 H_15         86.8592   45.5273  264.2271 hh      1  lig       0.162429
     43 H_16         87.7064   45.7620  268.9919 hi      1  lig       0.153097
     44 H_17         89.2978   46.0801  268.2656 hj      1  lig       0.153097
     45 H_18         88.3046   44.6950  267.6961 hk      1  lig       0.153097
     46 H_19         92.2225   55.3228  273.3257 hl      1  lig       0.393554
     47 H_1a         91.2849   53.9294  273.6848 hm      1  lig       0.393554
@<TRIPOS>BOND
     1     1     4    1
     2     1     6    2
     3     1    11    1
     4     2     3    1
     5     2     5    2
     6     2    32    1
     7     3     4    2
     8     3    15    1
     9     4    33    1
    10     5     6    1
    11     5    10    1
    12     6     7    1
    13     7     8    2
    14     8     9    1
    15     8    34    1
    16     9    10    2
    17     9    35    1
    18    11    12    2
    19    11    14    1
    20    12    13    1
    21    12    36    1
    22    13    27    2
    23    13    37    1
    24    14    26    2
    25    14    38    1
    26    15    16    1
    27    15    39    1
    28    16    17    2
    29    16    21    1
    30    17    18    1
    31    17    40    1
    32    18    19    2
    33    19    20    1
    34    19    41    1
    35    20    21    2
    36    20    42    1
    37    21    22    1
    38    22    23    2
    39    22    24    2
    40    22    25    1
    41    25    43    1
    42    25    44    1
    43    25    45    1
    44    26    27    1
    45    26    30    1
    46    27    28    1
    47    28    29    1
    48    29    30    2
    49    29    31    1
    50    31    46    1
    51    31    47    1
