@<TRIPOS>MOLECULE
lig
  48   52 0 0 0
SMALL
NO_CHARGES


@<TRIPOS>ATOM
      1 C_00         92.5906   47.2900  266.3444 c4      1  lig      -0.245498
      2 C_01         91.5700   48.2152  266.5159 c5      1  lig      -0.019449
      3 C_02         91.8167   49.4248  267.1546 c6      1  lig      -0.166535
      4 C_03         93.0889   49.7623  267.6340 c7      1  lig      -0.108347
      5 C_04         93.8920   47.5770  266.8285 c8      1  lig       0.307869
      6 C_05         94.1480   48.8244  267.4865 c9      1  lig       0.343421
      7 N_06         95.3850   49.0832  268.0126 n0      1  lig      -0.394170
      8 C_07         96.3430   48.1354  267.8658 cb      1  lig       0.026341
      9 C_08         96.0897   46.9257  267.2216 ci      1  lig       0.209104
     10 N_09         94.8705   46.6478  266.6904 ng      1  lig      -0.520927
     11 C_0a         93.2613   51.0285  268.3807 cj      1  lig       0.052122
     12 N_0b         90.2520   47.9338  266.1399 nr      1  lig      -0.226619
     13 C_0c         89.7015   47.1928  265.0832 ck      1  lig      -0.033887
     14 C_0d         90.4532   46.9549  263.9208 cm      1  lig       0.273301
     15 N_0e         89.9543   46.3298  262.8373 nw      1  lig      -0.521961
     16 C_0f         88.6785   45.8812  262.8956 cn      1  lig       0.178031
     17 C_0g         87.8678   46.0387  264.0101 co      1  lig      -0.211136
     18 C_0h         88.3733   46.7249  265.1240 cq      1  lig       0.023581
     19 S_0i         87.3145   46.9352  266.5561 s0      1  lig       0.904583
     20 O_0j         87.5376   48.2780  267.1026 o0      1  lig      -0.553465
     21 O_0k         85.9614   46.5209  266.1752 o1      1  lig      -0.523900
     22 C_0l         88.0033   45.6830  267.7810 cr      1  lig      -0.381172
     23 C_0m         94.2676   51.9515  268.0760 cs      1  lig      -0.224185
     24 C_0n         94.4607   53.0907  268.8507 ct      1  lig      -0.176783
     25 C_0o         92.4286   51.2390  269.4665 cw      1  lig      -0.121705
     26 C_0p         92.6104   52.3297  270.2980 cA      1  lig       0.025547
     27 C_0q         93.6343   53.2671  269.9747 cB      1  lig       0.033725
     28 S_0r         93.6567   54.5790  271.1456 s1      1  lig      -0.075870
     29 C_0s         92.4470   53.7602  272.0760 cC      1  lig       0.205598
     30 C_0t         91.9259   52.6515  271.4883 cD      1  lig      -0.303936
     31 N_0u         92.0631   54.2673  273.2652 nA      1  lig      -0.780885
     32 H_0v         92.3935   46.3273  265.8991 h0      1  lig       0.153639
     33 H_0w         90.9990   50.1186  267.2856 h6      1  lig       0.153126
     34 H_0x         97.3205   48.3625  268.2827 h7      1  lig       0.101377
     35 H_0y         96.8504   46.1676  267.1458 h8      1  lig       0.079808
     36 H_0z         89.5363   48.3371  266.7430 h9      1  lig       0.288903
     37 H_10         91.4671   47.3133  263.8480 hb      1  lig       0.090120
     38 H_11         88.3025   45.3523  262.0332 hd      1  lig       0.104789
     39 H_12         86.8652   45.6243  264.0193 he      1  lig       0.160152
     40 H_13         87.4147   45.7414  268.6992 hf      1  lig       0.152854
     41 H_14         89.0405   45.9170  267.9869 hg      1  lig       0.152854
     42 H_15         87.9100   44.6873  267.3524 hh      1  lig       0.152854
     43 H_16         94.9129   51.7823  267.2254 hi      1  lig       0.168370
     44 H_17         95.2369   53.8087  268.6088 hj      1  lig       0.189160
     45 H_18         91.6707   50.5120  269.7113 hk      1  lig       0.125950
     46 H_19         91.1413   52.0603  271.9230 hl      1  lig       0.187953
     47 H_1a         92.2887   55.2418  273.4713 hm      1  lig       0.372649
     48 H_1b         91.1958   53.9428  273.7133 hq      1  lig       0.372649
@<TRIPOS>BOND
     1     1     2    2
     2     1     5    1
     3     1    32    1
     4     2     3    1
     5     2    12    1
     6     3     4    2
     7     3    33    1
     8     4     6    1
     9     4    11    1
    10     5     6    1
    11     5    10    2
    12     6     7    2
    13     7     8    1
    14     8     9    2
    15     8    34    1
    16     9    10    1
    17     9    35    1
    18    11    23    2
    19    11    25    1
    20    12    13    1
    21    12    36    1
    22    13    14    2
    23    13    18    1
    24    14    15    1
    25    14    37    1
    26    15    16    2
    27    16    17    1
    28    16    38    1
    29    17    18    2
    30    17    39    1
    31    18    19    1
    32    19    20    2
    33    19    21    2
    34    19    22    1
    35    22    40    1
    36    22    41    1
    37    22    42    1
    38    23    24    1
    39    23    43    1
    40    24    27    2
    41    24    44    1
    42    25    26    2
    43    25    45    1
    44    26    27    1
    45    26    30    1
    46    27    28    1
    47    28    29    1
    48    29    30    2
    49    29    31    1
    50    30    46    1
    51    31    47    1
    52    31    48    1
