@<TRIPOS>MOLECULE
lig
  49   53 0 0 0
SMALL
NO_CHARGES


@<TRIPOS>ATOM
      1 C_00         92.5766   47.3309  266.4823 c4      1  lig      -0.244564
      2 C_01         91.6148   48.3287  266.6699 c5      1  lig      -0.021817
      3 C_02         91.9741   49.5270  267.2715 c6      1  lig      -0.182116
      4 C_03         93.2916   49.7960  267.6866 c7      1  lig      -0.087697
      5 C_04         93.9014   47.5331  266.9271 c8      1  lig       0.309644
      6 C_05         94.2765   48.7751  267.5225 c9      1  lig       0.340669
      7 N_06         95.5666   48.9639  267.9549 n0      1  lig      -0.406579
      8 C_07         96.4588   47.9530  267.7690 cb      1  lig       0.036123
      9 C_08         96.0739   46.7411  267.2208 ci      1  lig       0.206412
     10 N_09         94.8067   46.5203  266.7924 ng      1  lig      -0.518915
     11 C_0a         93.6005   51.1028  268.3248 cj      1  lig       0.026508
     12 N_0b         90.2860   48.1138  266.3106 nr      1  lig      -0.221174
     13 C_0c         94.5623   51.9414  267.7983 ck      1  lig      -0.209071
     14 C_0d         94.8762   53.1779  268.3684 cm      1  lig      -0.170673
     15 C_0e         92.9054   51.4651  269.4885 cn      1  lig      -0.125325
     16 C_0f         93.1902   52.6828  270.1257 co      1  lig       0.069604
     17 C_0g         94.1684   53.5476  269.5283 cq      1  lig       0.012988
     18 S_0h         94.3714   55.0131  270.4720 s0      1  lig      -0.063681
     19 C_0i         93.2135   54.4474  271.6124 cr      1  lig      -0.299853
     20 C_0j         92.6673   53.2239  271.3361 cs      1  lig       0.027272
     21 C_0k         91.6712   52.4815  272.2020 ct      1  lig      -0.185751
     22 C_0l         89.7166   47.3368  265.2886 cw      1  lig      -0.033265
     23 C_0m         88.4227   46.7955  265.3959 cA      1  lig       0.025807
     24 C_0n         87.8901   46.0818  264.3157 cB      1  lig      -0.210487
     25 C_0o         88.6567   45.9315  263.1642 cC      1  lig       0.177148
     26 N_0p         89.9099   46.4368  263.0398 nw      1  lig      -0.520753
     27 C_0q         90.4190   47.1179  264.0901 cD      1  lig       0.272214
     28 S_0r         87.4814   46.9006  266.9167 s1      1  lig       0.898388
     29 C_0s         88.3689   45.6582  268.0136 cE      1  lig      -0.386488
     30 O_0t         86.1255   46.4116  266.6625 o0      1  lig      -0.520791
     31 O_0u         87.6845   48.2469  267.4796 o1      1  lig      -0.547889
     32 H_0v         92.2862   46.3816  266.0648 h0      1  lig       0.153060
     33 H_0w         91.2203   50.2856  267.4256 h6      1  lig       0.168619
     34 H_0x         97.4800   48.1539  268.0556 h7      1  lig       0.100516
     35 H_0y         96.7815   45.9404  267.0540 h8      1  lig       0.080663
     36 H_0z         89.5700   48.5859  266.8683 h9      1  lig       0.279659
     37 H_10         95.1014   51.6480  266.9015 hb      1  lig       0.172886
     38 H_11         95.6230   53.8125  267.9390 hd      1  lig       0.187482
     39 H_12         92.1852   50.8006  269.9165 he      1  lig       0.122193
     40 H_13         93.0079   55.0675  272.4571 hf      1  lig       0.251393
     41 H_14         90.7466   52.2293  271.6900 hg      1  lig       0.071988
     42 H_15         91.4133   53.0763  273.0778 hh      1  lig       0.071988
     43 H_16         92.1070   51.5533  272.5792 hi      1  lig       0.071988
     44 H_17         86.9017   45.6336  264.3868 hj      1  lig       0.160141
     45 H_18         88.2688   45.3809  262.3227 hk      1  lig       0.105992
     46 H_19         91.4028   47.5361  263.9698 hl      1  lig       0.090397
     47 H_1a         87.8476   45.5993  268.9654 hm      1  lig       0.155049
     48 H_1b         89.3932   45.9992  268.1524 hq      1  lig       0.155049
     49 H_1c         88.3540   44.6911  267.5145 hr      1  lig       0.155049
@<TRIPOS>BOND
     1     1     2    2
     2     1     5    1
     3     1    32    1
     4     2     3    1
     5     2    12    1
     6     3     4    2
     7     3    33    1
     8     4     6    1
     9     4    11    1
    10     5     6    1
    11     5    10    2
    12     6     7    2
    13     7     8    1
    14     8     9    2
    15     8    34    1
    16     9    10    1
    17     9    35    1
    18    11    13    2
    19    11    15    1
    20    12    22    1
    21    12    36    1
    22    13    14    1
    23    13    37    1
    24    14    17    2
    25    14    38    1
    26    15    16    2
    27    15    39    1
    28    16    17    1
    29    16    20    1
    30    17    18    1
    31    18    19    1
    32    19    20    2
    33    19    40    1
    34    20    21    1
    35    21    41    1
    36    21    42    1
    37    21    43    1
    38    22    23    2
    39    22    27    1
    40    23    24    1
    41    23    28    1
    42    24    25    2
    43    24    44    1
    44    25    26    1
    45    25    45    1
    46    26    27    2
    47    27    46    1
    48    28    29    1
    49    28    30    2
    50    28    31    2
    51    29    47    1
    52    29    48    1
    53    29    49    1
