@<TRIPOS>MOLECULE
lig
  49   53 0 0 0
SMALL
NO_CHARGES


@<TRIPOS>ATOM
      1 C_00         92.5684   47.3375  266.4935 c4      1  lig      -0.249214
      2 C_01         91.6136   48.3329  266.6765 c5      1  lig      -0.024308
      3 C_02         91.9733   49.5322  267.2840 c6      1  lig      -0.193893
      4 C_03         93.2855   49.7940  267.6992 c7      1  lig      -0.065779
      5 C_04         93.8953   47.5338  266.9323 c8      1  lig       0.317528
      6 C_05         94.2739   48.7755  267.5320 c9      1  lig       0.330675
      7 N_06         95.5614   48.9635  267.9566 n0      1  lig      -0.405965
      8 C_07         96.4518   47.9561  267.7687 cb      1  lig       0.033122
      9 C_08         96.0633   46.7420  267.2148 ci      1  lig       0.207110
     10 N_09         94.7981   46.5237  266.7912 ng      1  lig      -0.520982
     11 C_0a         93.5930   51.0971  268.3380 cj      1  lig      -0.011621
     12 C_0b         94.5710   51.9416  267.7904 ck      1  lig      -0.215294
     13 C_0c         94.8596   53.1861  268.3482 cm      1  lig      -0.209894
     14 C_0d         92.9081   51.4764  269.4972 cn      1  lig      -0.149535
     15 C_0e         93.1896   52.7106  270.0994 co      1  lig       0.007821
     16 C_0f         94.1337   53.5561  269.4819 cq      1  lig       0.246153
     17 O_0g         94.2615   54.7258  270.1672 o0      1  lig      -0.261899
     18 C_0h         93.4410   54.6109  271.2476 cr      1  lig      -0.090350
     19 C_0i         92.7688   53.3968  271.2795 cs      1  lig      -0.000335
     20 N_0j         90.2757   48.1225  266.3106 nr      1  lig      -0.207234
     21 C_0k         91.8224   52.8717  272.3311 ct      1  lig      -0.275056
     22 C_0l         89.7186   47.3442  265.2867 cw      1  lig      -0.034013
     23 C_0m         88.4245   46.7994  265.3959 cA      1  lig       0.025914
     24 C_0n         87.8911   46.0836  264.3198 cB      1  lig      -0.209624
     25 C_0o         88.6587   45.9347  263.1648 cC      1  lig       0.174948
     26 N_0p         89.9086   46.4447  263.0371 nw      1  lig      -0.519426
     27 C_0q         90.4154   47.1288  264.0910 cD      1  lig       0.270347
     28 S_0r         87.4827   46.9058  266.9203 s0      1  lig       0.893780
     29 O_0s         86.1267   46.4095  266.6609 o1      1  lig      -0.519976
     30 O_0t         87.6798   48.2451  267.4815 o2      1  lig      -0.545757
     31 C_0u         88.3687   45.6595  268.0154 cE      1  lig      -0.387472
     32 H_0v         92.2904   46.3890  266.0570 h0      1  lig       0.152680
     33 H_0w         91.2163   50.2898  267.4341 h6      1  lig       0.169921
     34 H_0x         97.4746   48.1493  268.0557 h7      1  lig       0.101522
     35 H_0y         96.7729   45.9425  267.0563 h8      1  lig       0.080328
     36 H_0z         95.1085   51.6289  266.9063 h9      1  lig       0.189300
     37 H_10         95.6078   53.8357  267.9219 hb      1  lig       0.166730
     38 H_11         92.1810   50.8180  269.9489 hd      1  lig       0.150026
     39 H_12         93.4544   55.4578  271.9264 he      1  lig       0.195461
     40 H_13         89.5785   48.5935  266.8778 hf      1  lig       0.272687
     41 H_14         90.8419   52.6483  271.9125 hg      1  lig       0.096373
     42 H_15         91.6772   53.5934  273.1357 hh      1  lig       0.096373
     43 H_16         92.2075   51.9568  272.7842 hi      1  lig       0.096373
     44 H_17         86.9075   45.6346  264.3807 hj      1  lig       0.160014
     45 H_18         88.2723   45.3818  262.3229 hk      1  lig       0.106309
     46 H_19         91.4056   47.5358  263.9631 hl      1  lig       0.090469
     47 H_1a         87.8495   45.6002  268.9694 hm      1  lig       0.155221
     48 H_1b         89.3946   45.9969  268.1579 hq      1  lig       0.155221
     49 H_1c         88.3540   44.6896  267.5193 hr      1  lig       0.155221
@<TRIPOS>BOND
     1     1     2    2
     2     1     5    1
     3     1    32    1
     4     2     3    1
     5     2    20    1
     6     3     4    2
     7     3    33    1
     8     4     6    1
     9     4    11    1
    10     5     6    1
    11     5    10    2
    12     6     7    2
    13     7     8    1
    14     8     9    2
    15     8    34    1
    16     9    10    1
    17     9    35    1
    18    11    12    2
    19    11    14    1
    20    12    13    1
    21    12    36    1
    22    13    16    2
    23    13    37    1
    24    14    15    2
    25    14    38    1
    26    15    16    1
    27    15    19    1
    28    16    17    1
    29    17    18    1
    30    18    19    2
    31    18    39    1
    32    19    21    1
    33    20    22    1
    34    20    40    1
    35    21    41    1
    36    21    42    1
    37    21    43    1
    38    22    23    2
    39    22    27    1
    40    23    24    1
    41    23    28    1
    42    24    25    2
    43    24    44    1
    44    25    26    1
    45    25    45    1
    46    26    27    2
    47    27    46    1
    48    28    29    2
    49    28    30    2
    50    28    31    1
    51    31    47    1
    52    31    48    1
    53    31    49    1
