@<TRIPOS>MOLECULE
lig
  28   28 0 0 0
SMALL
NO_CHARGES


@<TRIPOS>ATOM
      1 P_00        102.1180   51.6240  252.2480 p0      1  lig       1.150829
      2 O_01        103.5450   51.4710  252.5720 o0      1  lig      -0.685804
      3 O_02        101.9920   52.2580  250.7690 o1      1  lig      -0.700088
      4 O_03        101.4330   52.6180  253.3270 o2      1  lig      -0.771694
      5 C_04         97.9110   46.3760  253.3390 c4      1  lig       0.132605
      6 O_05         98.3880   46.2720  254.6760 o3      1  lig      -0.641504
      7 C_06         97.7340   47.8520  252.9540 c5      1  lig       0.089048
      8 O_07         96.8120   48.4920  253.8610 o4      1  lig      -0.628642
      9 C_08         97.2290   47.9390  251.4800 c6      1  lig       0.367008
     10 O_09         95.8100   48.0670  251.3700 o5      1  lig      -0.717895
     11 C_0a         98.0010   49.1670  250.9310 c7      1  lig       0.120430
     12 O_0b         98.0990   49.1620  249.4910 o6      1  lig      -0.708464
     13 C_0c         99.3490   49.0040  251.6540 c8      1  lig       0.095728
     14 O_0d         99.0110   48.5260  252.9910 o7      1  lig      -0.399097
     15 C_0e        100.1110   50.3400  251.6780 c9      1  lig       0.036508
     16 O_0f        101.3910   50.1900  252.3290 o8      1  lig      -0.500265
     17 H_0g         98.6340   45.9170  252.6660 h0      1  lig       0.066650
     18 H_0h        103.6350   51.0740  253.4410 h6      1  lig       0.427381
     19 H_0i         96.9520   45.8640  253.2570 h7      1  lig       0.066650
     20 H_0j         98.6280   45.3610  254.8610 h8      1  lig       0.412755
     21 H_0k         96.6670   49.3990  253.5850 h9      1  lig       0.447492
     22 H_0l         97.4180   47.0270  250.9130 hb      1  lig       0.090117
     23 H_0m         95.4520   47.2940  250.9290 hd      1  lig       0.452181
     24 H_0n         97.5240   50.1290  251.1170 he      1  lig       0.111883
     25 H_0o         97.5840   49.8890  249.1320 hf      1  lig       0.431827
     26 H_0p        100.0150   48.3020  251.1510 hg      1  lig       0.104065
     27 H_0q         99.5210   51.0670  252.2350 hh      1  lig       0.075148
     28 H_0r        100.2680   50.6820  250.6550 hi      1  lig       0.075148
@<TRIPOS>BOND
     1     1     2    1
     2     1     3    2
     3     1     4    1
     4     1    16    1
     5     2    18    1
     6     5     6    1
     7     5     7    1
     8     5    17    1
     9     5    19    1
    10     6    20    1
    11     7     8    1
    12     7     9    1
    13     7    14    1
    14     8    21    1
    15     9    10    1
    16     9    11    1
    17     9    22    1
    18    10    23    1
    19    11    12    1
    20    11    13    1
    21    11    24    1
    22    12    25    1
    23    13    14    1
    24    13    15    1
    25    13    26    1
    26    15    16    1
    27    15    27    1
    28    15    28    1
