@<TRIPOS>MOLECULE
lig
   5    4 0 0 0
SMALL
NO_CHARGES


@<TRIPOS>ATOM
      1 P_00         95.1040   48.4990  259.4870 p0      1  lig       1.399958
      2 O_01         94.0750   47.6780  260.4220 o0      1  lig      -1.100116
      3 O_02         95.6640   47.4570  258.4800 o1      1  lig      -1.100339
      4 O_03         96.1780   48.8540  260.4530 o2      1  lig      -1.099278
      5 O_04         94.4660   49.6720  258.8090 o3      1  lig      -1.100225
@<TRIPOS>BOND
     1     1     2    2
     2     1     3    1
     3     1     4    1
     4     1     5    1
