@<TRIPOS>MOLECULE
lig
  42   44 0 0 0
SMALL
NO_CHARGES


@<TRIPOS>ATOM
      1 O_00         39.2345   17.6631   12.7846 o0      1  lig      -0.841900
      2 C_01         40.3521   17.1021   12.7361 c4      1  lig       0.881900
      3 O_02         41.1778   17.2187   11.8038 o1      1  lig      -0.841900
      4 C_03         40.7693   16.2193   13.9145 c5      1  lig       0.022600
      5 O_04         42.0927   15.7293   13.7433 o2      1  lig      -0.353400
      6 C_05         42.5145   14.9212   14.7395 c6      1  lig       0.181600
      7 C_06         42.1856   13.5746   14.8668 c7      1  lig       0.023000
      8 Br07         41.2068   12.6501   13.5170 a0      1  lig      -0.125300
      9 C_08         42.6245   12.9340   16.0147 c8      1  lig      -0.087800
     10 C_09         42.3443   11.5877   16.4784 c9      1  lig      -0.010100
     11 C_0a         43.3652   10.7569   16.9470 cb      1  lig      -0.028800
     12 C_0b         43.0859    9.4573   17.3660 ci      1  lig      -0.308500
     13 C_0c         41.7792    8.9724   17.3118 cj      1  lig      -0.084000
     14 C_0d         40.7401    9.7888   16.8448 ck      1  lig       0.104700
     15 N_0e         39.3981    9.3768   16.7741 n0      1  lig      -0.714700
     16 C_0f         38.9977    7.9742   16.7120 cm      1  lig       0.132300
     17 C_0g         39.0447    7.4076   15.2989 cn      1  lig       0.050400
     18 C_0h         40.2643    7.0598   14.7072 co      1  lig       0.026700
     19 C_0i         40.2940    6.5235   13.4197 cq      1  lig      -0.297000
     20 C_0j         39.1061    6.3134   12.7236 cr      1  lig      -0.111200
     21 C_0k         37.8875    6.6562   13.3069 cs      1  lig      -0.140900
     22 C_0l         37.8553    7.2050   14.5894 ct      1  lig      -0.226300
     23 C_0m         41.0347   11.0942   16.4477 cw      1  lig      -0.027100
     24 S_0n         43.6360   14.0254   16.9149 s0      1  lig      -0.144300
     25 C_0o         43.3652   15.3253   15.7666 cA      1  lig      -0.026700
     26 C_0p         44.0487   16.6108   16.0384 cB      1  lig       0.735700
     27 O_0q         43.8748   17.5611   15.2449 o3      1  lig      -0.733800
     28 O_0r         44.7784   16.7153   17.0499 o4      1  lig      -0.733800
     29 H_0s         40.7112   16.7969   14.8381 h0      1  lig       0.042500
     30 H_0t         40.0553   15.3978   13.9950 h6      1  lig       0.042500
     31 H_0u         44.3838   11.1152   16.9827 h7      1  lig       0.112500
     32 H_0v         43.8828    8.8262   17.7310 h8      1  lig       0.151600
     33 H_0w         41.5909    7.9603   17.6367 h9      1  lig       0.119300
     34 H_0x         38.6574   10.0626   16.8096 hb      1  lig       0.370300
     35 H_0y         39.6610    7.3813   17.3429 hd      1  lig       0.047200
     36 H_0z         37.9898    7.8713   17.1160 he      1  lig       0.047200
     37 H_10         41.1892    7.2050   15.2463 hf      1  lig       0.042400
     38 H_11         41.2390    6.2704   12.9621 hg      1  lig       0.240900
     39 H_12         39.1291    5.8845   11.7326 hh      1  lig       0.119000
     40 H_13         36.9665    6.4969   12.7658 hi      1  lig       0.121300
     41 H_14         36.9062    7.4739   15.0296 hj      1  lig       0.118400
     42 H_15         40.2333   11.7381   16.1154 hk      1  lig       0.103500
@<TRIPOS>BOND
     1     1     2    2
     2     2     3    1
     3     2     4    1
     4     4     5    1
     5     4    29    1
     6     4    30    1
     7     5     6    1
     8     6    25    2
     9     6     7    1
    10     7     8    1
    11     7     9    2
    12     9    10    1
    13     9    24    1
    14    10    23    1
    15    10    11    2
    16    11    12    1
    17    11    31    1
    18    12    13    2
    19    12    32    1
    20    13    14    1
    21    13    33    1
    22    14    15    1
    23    14    23    2
    24    15    16    1
    25    15    34    1
    26    16    17    1
    27    16    35    1
    28    16    36    1
    29    17    22    1
    30    17    18    2
    31    18    19    1
    32    18    37    1
    33    19    20    2
    34    19    38    1
    35    20    21    1
    36    20    39    1
    37    21    22    2
    38    21    40    1
    39    22    41    1
    40    23    42    1
    41    24    25    1
    42    25    26    1
    43    26    27    2
    44    26    28    1
