@<TRIPOS>MOLECULE
lig
  60   63 0 0 0
SMALL
NO_CHARGES


@<TRIPOS>ATOM
      1 O_00         41.2756   17.6314   11.7392 o0      1  lig      -0.840700
      2 C_01         40.5209   17.5798   12.7363 c4      1  lig       0.884200
      3 O_02         39.5112   18.2966   12.9137 o1      1  lig      -0.840700
      4 C_03         40.8718   16.5948   13.8531 c5      1  lig       0.008800
      5 O_04         42.1284   15.9801   13.6057 o2      1  lig      -0.347700
      6 C_05         42.5067   15.0961   14.5535 c6      1  lig       0.169700
      7 C_06         42.1050   13.7638   14.6029 c7      1  lig      -0.009000
      8 Br07         41.0604   12.9703   13.2195 a0      1  lig      -0.097200
      9 C_08         42.4736   13.0428   15.7309 c8      1  lig      -0.049500
     10 C_09         42.1345   11.6814   16.1187 c9      1  lig      -0.036500
     11 C_0a         43.0991   10.8232   16.6550 cb      1  lig      -0.015100
     12 C_0b         42.7730    9.5138   17.0059 ci      1  lig      -0.279000
     13 C_0c         41.4767    9.0403   16.8075 cj      1  lig      -0.140200
     14 C_0d         40.4943    9.8795   16.2662 ck      1  lig       0.148500
     15 N_0e         39.1733    9.4611   16.0229 n0      1  lig      -0.775100
     16 C_0f         38.8803    8.0706   15.6816 cm      1  lig       0.309300
     17 C_0g         37.3499    7.8627   15.5714 cn      1  lig      -0.189700
     18 C_0h         36.9746    6.4537   15.0726 co      1  lig       0.010900
     19 N_0i         37.7104    6.1236   13.8434 ng      1  lig      -0.316200
     20 S_0j         36.9761    5.2050   12.5892 s0      1  lig       0.970200
     21 O_0k         37.8364    5.3259   11.4042 o3      1  lig      -0.549800
     22 O_0l         35.5548    5.5863   12.5166 o4      1  lig      -0.540800
     23 C_0m         37.1037    3.4728   13.2183 cq      1  lig      -0.020400
     24 C_0n         36.7137    2.5266   12.0998 cr      1  lig      -0.005600
     25 C_0o         35.3715    2.1867   11.9063 cs      1  lig      -0.117200
     26 C_0p         35.0075    1.3509   10.8514 ct      1  lig      -0.149500
     27 C_0q         35.9839    0.8540    9.9894 cw      1  lig      -0.120900
     28 C_0r         37.3260    1.1810   10.1830 cA      1  lig      -0.170200
     29 C_0s         37.6914    2.0147   11.2396 cB      1  lig      -0.103800
     30 C_0t         39.1749    6.2318   13.9220 cC      1  lig       0.031900
     31 C_0u         39.5890    7.6410   14.3716 cD      1  lig      -0.161800
     32 C_0v         40.8302   11.1974   15.9487 cE      1  lig      -0.073200
     33 S_0w         43.4983   14.0501   16.7177 s1      1  lig      -0.149900
     34 C_0x         43.3217   15.4163   15.6304 cF      1  lig      -0.009600
     35 C_0y         44.0307   16.6631   16.0010 cG      1  lig       0.729700
     36 O_0z         44.7160   16.6749   17.0464 o5      1  lig      -0.731300
     37 O_10         43.9282   17.6692   15.2634 o6      1  lig      -0.731400
     38 H_11         40.0886   15.8379   13.9235 h0      1  lig       0.045800
     39 H_12         40.8969   17.1346   14.8012 h6      1  lig       0.045800
     40 H_13         44.1104   11.1712   16.8083 h7      1  lig       0.109100
     41 H_14         43.5244    8.8661   17.4327 h8      1  lig       0.147700
     42 H_15         41.2432    8.0198   17.0746 h9      1  lig       0.129900
     43 H_16         38.4441   10.1521   16.1264 hb      1  lig       0.369000
     44 H_17         39.2589    7.4686   16.5076 hd      1  lig       0.030700
     45 H_18         36.8766    8.0462   16.5360 he      1  lig       0.097600
     46 H_19         36.9348    8.6028   14.8873 hf      1  lig       0.097600
     47 H_1a         37.2043    5.6975   15.8233 hg      1  lig       0.066100
     48 H_1b         35.9002    6.3859   14.9017 hh      1  lig       0.066100
     49 H_1c         38.1271    3.3079   13.5550 hi      1  lig       0.037100
     50 H_1d         36.4608    3.3486   14.0877 hj      1  lig       0.037100
     51 H_1e         34.6091    2.5781   12.5626 hk      1  lig       0.141200
     52 H_1f         33.9697    1.0939   10.6989 hl      1  lig       0.134900
     53 H_1g         35.7040    0.2213    9.1599 hm      1  lig       0.128300
     54 H_1h         38.0756    0.8016    9.5040 hq      1  lig       0.137000
     55 H_1i         38.7321    2.2645   11.3849 hr      1  lig       0.130300
     56 H_1j         39.5253    5.4655   14.6134 ht      1  lig       0.050700
     57 H_1k         39.6129    5.9826   12.9555 hu      1  lig       0.050700
     58 H_1l         39.3499    8.3541   13.5828 hv      1  lig       0.076700
     59 H_1m         40.6706    7.6852   14.4991 hy      1  lig       0.076700
     60 H_1n         40.0955   11.8787   15.5559 hz      1  lig       0.102700
@<TRIPOS>BOND
     1     1     2    2
     2     2     3    1
     3     2     4    1
     4     4     5    1
     5     4    38    1
     6     4    39    1
     7     5     6    1
     8     6    34    2
     9     6     7    1
    10     7     8    1
    11     7     9    2
    12     9    10    1
    13     9    33    1
    14    10    32    1
    15    10    11    2
    16    11    12    1
    17    11    40    1
    18    12    13    2
    19    12    41    1
    20    13    14    1
    21    13    42    1
    22    14    15    1
    23    14    32    2
    24    15    16    1
    25    15    43    1
    26    16    31    1
    27    16    17    1
    28    16    44    1
    29    17    18    1
    30    17    45    1
    31    17    46    1
    32    18    19    1
    33    18    47    1
    34    18    48    1
    35    19    20    1
    36    19    30    1
    37    20    21    2
    38    20    22    2
    39    20    23    1
    40    23    24    1
    41    23    49    1
    42    23    50    1
    43    24    29    1
    44    24    25    2
    45    25    26    1
    46    25    51    1
    47    26    27    2
    48    26    52    1
    49    27    28    1
    50    27    53    1
    51    28    29    2
    52    28    54    1
    53    29    55    1
    54    30    31    1
    55    30    56    1
    56    30    57    1
    57    31    58    1
    58    31    59    1
    59    32    60    1
    60    33    34    1
    61    34    35    1
    62    35    36    2
    63    35    37    1
