@<TRIPOS>MOLECULE
lig
  45   47 0 0 0
SMALL
NO_CHARGES


@<TRIPOS>ATOM
      1 O_00         41.1639   17.7415   12.1780 o0      1  lig      -0.841300
      2 C_01         40.3722   17.6063   13.1368 c4      1  lig       0.883600
      3 O_02         39.3254   18.2679   13.3145 o1      1  lig      -0.841400
      4 C_03         40.7175   16.5469   14.1863 c5      1  lig       0.003800
      5 O_04         41.9134   15.8492   13.8454 o2      1  lig      -0.358800
      6 C_05         42.3248   14.9326   14.7526 c6      1  lig       0.197200
      7 C_06         41.8775   13.6145   14.7795 c7      1  lig      -0.017900
      8 Br07         40.6644   12.9348   13.4743 a0      1  lig      -0.095900
      9 C_08         42.3473   12.8247   15.8292 c8      1  lig      -0.069800
     10 C_09         42.0577   11.4350   16.1601 c9      1  lig      -0.024900
     11 C_0a         43.0417   10.5800   16.6715 cb      1  lig      -0.030600
     12 C_0b         42.7506    9.2417   16.9424 ci      1  lig      -0.283300
     13 C_0c         41.4815    8.7321   16.6725 cj      1  lig      -0.148300
     14 C_0d         40.4829    9.5699   16.1594 ck      1  lig       0.145800
     15 N_0e         39.1835    9.1385   15.8446 n0      1  lig      -0.755800
     16 C_0f         38.9114    7.7621   15.4291 cm      1  lig       0.182100
     17 C_0g         39.6099    7.4194   14.0884 cn      1  lig      -0.015800
     18 C_0h         39.2402    6.0199   13.5606 co      1  lig       0.014000
     19 C_0i         37.7153    5.8364   13.4582 cq      1  lig       0.003300
     20 C_0j         37.0173    6.1412   14.7978 cr      1  lig      -0.010200
     21 C_0k         37.3829    7.5402   15.3340 cs      1  lig      -0.040500
     22 C_0l         40.7764   10.9164   15.9496 ct      1  lig      -0.016700
     23 S_0m         43.4366   13.7822   16.8006 s0      1  lig      -0.143300
     24 C_0n         43.2082   15.1991   15.7938 cw      1  lig      -0.024900
     25 C_0o         43.9470   16.4235   16.1845 cA      1  lig       0.734900
     26 O_0p         44.6954   16.3793   17.1852 o3      1  lig      -0.733700
     27 O_0q         43.8111   17.4654   15.5045 o4      1  lig      -0.733700
     28 H_0r         39.9034   15.8237   14.2410 h0      1  lig       0.046800
     29 H_0s         40.7838   17.0107   15.1721 h6      1  lig       0.046800
     30 H_0t         44.0372   10.9517   16.8661 h7      1  lig       0.111700
     31 H_0u         43.5096    8.5994   17.3640 h8      1  lig       0.148500
     32 H_0v         41.2784    7.6884   16.8636 h9      1  lig       0.137600
     33 H_0w         38.4190    9.7958   15.9008 hb      1  lig       0.354700
     34 H_0x         39.3330    7.1201   16.2024 hd      1  lig       0.060000
     35 H_0y         39.3536    8.1638   13.3345 he      1  lig       0.016000
     36 H_0z         40.6913    7.4722   14.2150 hf      1  lig       0.016000
     37 H_10         39.6904    5.8679   12.5796 hg      1  lig      -0.007000
     38 H_11         39.6604    5.2538   14.2121 hh      1  lig      -0.007000
     39 H_12         37.3186    6.4933   12.6841 hi      1  lig      -0.003600
     40 H_13         37.4834    4.8187   13.1442 hj      1  lig      -0.003600
     41 H_14         35.9367    6.0761   14.6707 hk      1  lig      -0.014600
     42 H_15         37.2845    5.3857   15.5367 hl      1  lig      -0.014600
     43 H_16         36.9252    7.6795   16.3134 hm      1  lig       0.021000
     44 H_17         36.9434    8.2942   14.6809 hq      1  lig       0.021000
     45 H_18         40.0054   11.5887   15.6068 hr      1  lig       0.092400
@<TRIPOS>BOND
     1     1     2    2
     2     2     3    1
     3     2     4    1
     4     4     5    1
     5     4    28    1
     6     4    29    1
     7     5     6    1
     8     6    24    2
     9     6     7    1
    10     7     8    1
    11     7     9    2
    12     9    10    1
    13     9    23    1
    14    10    22    1
    15    10    11    2
    16    11    12    1
    17    11    30    1
    18    12    13    2
    19    12    31    1
    20    13    14    1
    21    13    32    1
    22    14    15    1
    23    14    22    2
    24    15    16    1
    25    15    33    1
    26    16    21    1
    27    16    17    1
    28    16    34    1
    29    17    18    1
    30    17    35    1
    31    17    36    1
    32    18    19    1
    33    18    37    1
    34    18    38    1
    35    19    20    1
    36    19    39    1
    37    19    40    1
    38    20    21    1
    39    20    41    1
    40    20    42    1
    41    21    43    1
    42    21    44    1
    43    22    45    1
    44    23    24    1
    45    24    25    1
    46    25    26    2
    47    25    27    1
