@<TRIPOS>MOLECULE
lig
  57   59 0 0 0
SMALL
NO_CHARGES


@<TRIPOS>ATOM
      1 S_00         43.3233   13.7400   16.9527 s0      1  lig      -0.147500
      2 C_01         43.2030   15.1929   15.9762 c4      1  lig      -0.046800
      3 C_02         42.4447   14.9739   14.8477 c5      1  lig       0.154400
      4 C_03         41.9770   13.6283   14.7765 c6      1  lig       0.043600
      5 C_04         42.3482   12.8303   15.8279 c7      1  lig      -0.062300
      6 C_05         43.9057   16.4430   16.4763 c8      1  lig       0.788400
      7 O_06         44.5237   16.3493   17.5596 o0      1  lig      -0.760400
      8 O_07         43.7737   17.4605   15.7592 o1      1  lig      -0.760400
      9 C_08         42.0535   11.4291   16.1130 c9      1  lig      -0.024200
     10 C_09         40.7754   10.8941   15.8359 cb      1  lig      -0.017400
     11 C_0a         40.4853    9.5424   16.1107 ci      1  lig       0.139700
     12 C_0b         41.4762    8.7108   16.6670 cj      1  lig      -0.169300
     13 C_0c         42.7530    9.2326   16.9457 ck      1  lig      -0.251600
     14 C_0d         43.0383   10.5835   16.6694 cm      1  lig      -0.047500
     15 Br0e         40.9483   13.0395   13.2971 a0      1  lig      -0.187400
     16 O_0f         42.2170   15.8802   13.8703 o2      1  lig      -0.368600
     17 C_0g         41.2561   16.8862   14.1750 cn      1  lig       0.105200
     18 C_0h         40.9764   17.7598   12.9456 co      1  lig       0.830100
     19 O_0i         40.0382   17.4490   12.1783 o3      1  lig      -0.817600
     20 O_0j         41.7122   18.7575   12.7906 o4      1  lig      -0.817700
     21 N_0k         39.1897    9.0765   15.8167 n0      1  lig      -0.740900
     22 C_0l         38.9258    7.6726   15.5737 cq      1  lig       0.049300
     23 C_0m         37.4107    7.4354   15.4606 cr      1  lig      -0.085200
     24 C_0n         37.0992    5.9646   15.1380 cs      1  lig       0.238000
     25 C_0o         37.8320    5.5053   13.8665 ct      1  lig      -0.124900
     26 C_0p         39.3470    5.7425   13.9797 cw      1  lig       0.259600
     27 C_0q         39.6585    7.2133   14.3023 cA      1  lig      -0.019200
     28 C_0r         35.5944    5.7760   14.9686 cB      1  lig      -0.142300
     29 C_0s         37.5116    5.0835   16.3137 cC      1  lig      -0.094900
     30 C_0t         40.0361    5.3373   12.6798 cD      1  lig      -0.236500
     31 C_0u         39.9263    4.8450   15.0695 cE      1  lig      -0.149500
     32 H_0v         40.0223   11.5284   15.3918 h0      1  lig       0.153100
     33 H_0w         41.2785    7.6723   16.8842 h6      1  lig       0.135200
     34 H_0x         43.5204    8.5921   17.3560 h7      1  lig       0.139100
     35 H_0y         44.0255   10.9664   16.8787 h8      1  lig       0.103800
     36 H_0z         40.3174   16.4390   14.5068 h9      1  lig       0.034000
     37 H_10         41.6234   17.5201   14.9838 hb      1  lig       0.034000
     38 H_11         38.6249    9.7034   15.2558 hd      1  lig       0.356500
     39 H_12         39.3172    7.1339   16.4367 he      1  lig       0.123500
     40 H_13         36.9186    7.7249   16.3890 hf      1  lig       0.029700
     41 H_14         36.9969    8.0765   14.6822 hg      1  lig       0.029700
     42 H_15         37.6335    4.4493   13.6837 hh      1  lig      -0.004000
     43 H_16         37.4405    6.0440   13.0036 hi      1  lig      -0.004000
     44 H_17         39.3640    7.8427   13.4625 hj      1  lig       0.033100
     45 H_18         40.7334    7.3480   14.4233 hk      1  lig       0.033100
     46 H_19         35.3442    4.7449   14.7157 hl      1  lig       0.015400
     47 H_1a         35.0533    6.0262   15.8811 hm      1  lig       0.015400
     48 H_1b         35.1963    6.4082   14.1751 hq      1  lig       0.015400
     49 H_1c         37.4373    4.0237   16.0675 hr      1  lig       0.001800
     50 H_1d         38.5225    5.2716   16.6604 ht      1  lig       0.001800
     51 H_1e         36.8724    5.2577   17.1806 hu      1  lig       0.001800
     52 H_1f         41.1045    5.5542   12.7107 hv      1  lig       0.055000
     53 H_1g         39.9233    4.2707   12.4802 hy      1  lig       0.055000
     54 H_1h         39.6277    5.8674   11.8225 hz      1  lig       0.055000
     55 H_1i         41.0117    4.8712   15.0469 hA      1  lig       0.016800
     56 H_1j         39.6557    5.1477   16.0756 hB      1  lig       0.016800
     57 H_1k         39.6249    3.8045   14.9423 hC      1  lig       0.016800
@<TRIPOS>BOND
     1     1     2    1
     2     1     5    1
     3     2     3    2
     4     2     6    1
     5     3     4    1
     6     3    16    1
     7     4     5    2
     8     4    15    1
     9     5     9    1
    10     6     7    2
    11     6     8    1
    12     9    10    2
    13     9    14    1
    14    10    11    1
    15    10    32    1
    16    11    12    2
    17    11    21    1
    18    12    13    1
    19    12    33    1
    20    13    14    2
    21    13    34    1
    22    14    35    1
    23    16    17    1
    24    17    18    1
    25    17    36    1
    26    17    37    1
    27    18    19    2
    28    18    20    1
    29    21    22    1
    30    21    38    1
    31    22    23    1
    32    22    27    1
    33    22    39    1
    34    23    24    1
    35    23    40    1
    36    23    41    1
    37    24    25    1
    38    24    28    1
    39    24    29    1
    40    25    26    1
    41    25    42    1
    42    25    43    1
    43    26    27    1
    44    26    30    1
    45    26    31    1
    46    27    44    1
    47    27    45    1
    48    28    46    1
    49    28    47    1
    50    28    48    1
    51    29    49    1
    52    29    50    1
    53    29    51    1
    54    30    52    1
    55    30    53    1
    56    30    54    1
    57    31    55    1
    58    31    56    1
    59    31    57    1
