@<TRIPOS>MOLECULE
lig
  37   38 0 0 0
SMALL
NO_CHARGES


@<TRIPOS>ATOM
      1 C_00         37.3038    6.0207   14.7782 c4      1  lig      -0.087400
      2 C_01         37.5441    7.3857   15.4416 c5      1  lig       0.018600
      3 C_02         39.0107    7.6228   15.8168 c6      1  lig       0.626000
      4 O_03         39.7628    6.6642   15.9916 o0      1  lig      -0.580800
      5 N_04         39.3847    8.9129   15.9015 n0      1  lig      -0.437700
      6 C_05         40.6707    9.4518   16.1790 c7      1  lig       0.036500
      7 C_06         41.6984    8.7040   16.7853 c8      1  lig      -0.057000
      8 C_07         42.9338    9.3143   17.0710 c9      1  lig      -0.306000
      9 C_08         43.1410   10.6700   16.7518 cb      1  lig      -0.005000
     10 C_09         42.1184   11.4322   16.1450 ci      1  lig       0.011000
     11 C_0a         42.3322   12.8383   15.8154 cj      1  lig      -0.048600
     12 S_0b         43.1854   13.8565   16.9461 s0      1  lig      -0.134300
     13 C_0c         43.0171   15.2585   15.9044 ck      1  lig      -0.040700
     14 C_0d         43.6041   16.5277   16.3926 cm      1  lig       0.733500
     15 O_0e         43.5028   17.5484   15.6779 o1      1  lig      -0.732100
     16 O_0f         44.1829   16.5486   17.5021 o2      1  lig      -0.732200
     17 C_0g         42.3335   14.9436   14.7511 cn      1  lig       0.225000
     18 O_0h         42.0634   15.8257   13.7651 o3      1  lig      -0.358900
     19 C_0i         40.9041   16.6162   13.9936 co      1  lig       0.006500
     20 C_0j         40.4217   17.2724   12.6981 cq      1  lig       0.869600
     21 O_0k         41.2809   17.6281   11.8606 o4      1  lig      -0.834000
     22 O_0l         39.1845   17.3898   12.5564 o5      1  lig      -0.834100
     23 C_0m         41.9618   13.5670   14.7145 cr      1  lig      -0.058900
     24 Br0n         40.9942   12.8290   13.2469 a0      1  lig      -0.100100
     25 C_0o         40.8826   10.8086   15.8614 cs      1  lig      -0.146100
     26 H_0p         36.2433    5.8732   14.5739 h0      1  lig       0.018300
     27 H_0q         37.8350    5.9382   13.8292 h6      1  lig       0.018300
     28 H_0r         37.6330    5.2034   15.4210 h7      1  lig       0.018300
     29 H_0s         37.2252    8.1837   14.7705 h8      1  lig       0.009100
     30 H_0t         36.9244    7.4622   16.3363 h9      1  lig       0.009100
     31 H_0u         38.6703    9.5922   15.6841 hb      1  lig       0.258900
     32 H_0v         41.5611    7.6677   17.0526 hd      1  lig       0.129000
     33 H_0w         43.7203    8.7432   17.5419 he      1  lig       0.153900
     34 H_0x         44.0904   11.1286   16.9871 hf      1  lig       0.100600
     35 H_0y         40.0889   16.0102   14.3930 hg      1  lig       0.048300
     36 H_0z         41.1295   17.3893   14.7294 hh      1  lig       0.048300
     37 H_10         40.0924   11.3709   15.3855 hi      1  lig       0.155100
@<TRIPOS>BOND
     1     1     2    1
     2     1    26    1
     3     1    27    1
     4     1    28    1
     5     2     3    1
     6     2    29    1
     7     2    30    1
     8     3     4    2
     9     3     5    1
    10     5     6    1
    11     5    31    1
    12     6    25    2
    13     6     7    1
    14     7     8    2
    15     7    32    1
    16     8     9    1
    17     8    33    1
    18     9    10    2
    19     9    34    1
    20    10    11    1
    21    10    25    1
    22    11    23    2
    23    11    12    1
    24    12    13    1
    25    13    14    1
    26    13    17    2
    27    14    15    2
    28    14    16    1
    29    17    18    1
    30    17    23    1
    31    18    19    1
    32    19    20    1
    33    19    35    1
    34    19    36    1
    35    20    21    2
    36    20    22    1
    37    23    24    1
    38    25    37    1
