@<TRIPOS>MOLECULE
lig
  41   43 0 0 0
SMALL
NO_CHARGES


@<TRIPOS>ATOM
      1 O_00         39.1680   17.5120   12.6949 o0      1  lig      -0.836300
      2 C_01         40.3245   17.0339   12.6933 c4      1  lig       0.871300
      3 O_02         41.2000   17.2665   11.8308 o1      1  lig      -0.836300
      4 C_03         40.7257   16.1090   13.8445 c5      1  lig       0.021000
      5 O_04         42.0919   15.7294   13.7437 o2      1  lig      -0.368500
      6 C_05         42.5145   14.9212   14.7395 c6      1  lig       0.245000
      7 C_06         42.1856   13.5746   14.8668 c7      1  lig      -0.055100
      8 Br07         41.2053   12.6509   13.5174 a0      1  lig      -0.105000
      9 C_08         42.6245   12.9340   16.0147 c8      1  lig      -0.045700
     10 C_09         42.3443   11.5877   16.4784 c9      1  lig       0.016800
     11 C_0a         43.3652   10.7569   16.9470 cb      1  lig      -0.017200
     12 C_0b         43.0859    9.4573   17.3660 ci      1  lig      -0.294700
     13 C_0c         41.7792    8.9724   17.3118 cj      1  lig      -0.054700
     14 C_0d         40.7401    9.7888   16.8448 ck      1  lig       0.014600
     15 N_0e         39.3981    9.3768   16.7741 n0      1  lig      -0.362600
     16 C_0f         38.9977    7.9742   16.7120 cm      1  lig       0.609400
     17 O_0g         38.6112    7.3065   17.6711 o3      1  lig      -0.569700
     18 C_0h         39.0447    7.4076   15.2989 cn      1  lig      -0.091900
     19 C_0i         40.2643    7.0598   14.7072 co      1  lig      -0.099100
     20 C_0j         40.2940    6.5235   13.4197 cq      1  lig      -0.147400
     21 C_0k         39.1061    6.3134   12.7236 cr      1  lig      -0.137700
     22 C_0l         37.8875    6.6562   13.3069 cs      1  lig      -0.143300
     23 C_0m         37.8553    7.2050   14.5894 ct      1  lig      -0.095500
     24 C_0n         41.0347   11.0942   16.4477 cw      1  lig      -0.143800
     25 S_0o         43.6360   14.0254   16.9149 s0      1  lig      -0.133700
     26 C_0p         43.3652   15.3253   15.7666 cA      1  lig      -0.060800
     27 C_0q         44.0484   16.6109   16.0386 cB      1  lig       0.744100
     28 O_0r         43.8753   17.5608   15.2444 o4      1  lig      -0.734900
     29 O_0s         44.7768   16.7159   17.0509 o5      1  lig      -0.734900
     30 H_0t         40.5589   16.6193   14.7942 h0      1  lig       0.043700
     31 H_0u         40.0731   15.2344   13.8224 h6      1  lig       0.043700
     32 H_0v         44.3829   11.1171   16.9883 h7      1  lig       0.104100
     33 H_0w         43.8822    8.8280   17.7354 h8      1  lig       0.150900
     34 H_0x         41.5946    7.9649   17.6501 h9      1  lig       0.130300
     35 H_0y         38.7229   10.1212   16.6814 hb      1  lig       0.266400
     36 H_0z         41.1959    7.1942   15.2378 hd      1  lig       0.126700
     37 H_10         41.2391    6.2673   12.9638 he      1  lig       0.144200
     38 H_11         39.1282    5.8806   11.7343 hf      1  lig       0.130500
     39 H_12         36.9663    6.4952   12.7665 hg      1  lig       0.124300
     40 H_13         36.9054    7.4761   15.0276 hh      1  lig       0.133300
     41 H_14         40.2344   11.7364   16.1095 hi      1  lig       0.148500
@<TRIPOS>BOND
     1     1     2    2
     2     2     3    1
     3     2     4    1
     4     4     5    1
     5     4    30    1
     6     4    31    1
     7     5     6    1
     8     6    26    2
     9     6     7    1
    10     7     8    1
    11     7     9    2
    12     9    10    1
    13     9    25    1
    14    10    24    1
    15    10    11    2
    16    11    12    1
    17    11    32    1
    18    12    13    2
    19    12    33    1
    20    13    14    1
    21    13    34    1
    22    14    15    1
    23    14    24    2
    24    15    16    1
    25    15    35    1
    26    16    17    2
    27    16    18    1
    28    18    23    1
    29    18    19    2
    30    19    20    1
    31    19    36    1
    32    20    21    2
    33    20    37    1
    34    21    22    1
    35    21    38    1
    36    22    23    2
    37    22    39    1
    38    23    40    1
    39    24    41    1
    40    25    26    1
    41    26    27    1
    42    27    28    2
    43    27    29    1
