@<TRIPOS>MOLECULE
lig
  29   30 0 0 0
SMALL
NO_CHARGES


@<TRIPOS>ATOM
      1 N_00         39.2136    9.0772   15.8610 n0      1  lig      -0.864400
      2 C_01         40.4829    9.5699   16.1594 c4      1  lig       0.196400
      3 C_02         41.4815    8.7321   16.6725 c5      1  lig      -0.154500
      4 C_03         42.7506    9.2417   16.9424 c6      1  lig      -0.303100
      5 C_04         43.0417   10.5800   16.6715 c7      1  lig      -0.007700
      6 C_05         42.0577   11.4350   16.1601 c8      1  lig      -0.039100
      7 C_06         42.3473   12.8247   15.8292 c9      1  lig      -0.030600
      8 S_07         43.4366   13.7822   16.8006 s0      1  lig      -0.126400
      9 C_08         43.2082   15.1991   15.7938 cb      1  lig      -0.063700
     10 C_09         43.9543   16.4193   16.1786 ci      1  lig       0.753100
     11 O_0a         43.8122   17.4512   15.4873 o0      1  lig      -0.739000
     12 O_0b         44.7036   16.3893   17.1807 o1      1  lig      -0.739100
     13 C_0c         42.3248   14.9326   14.7526 cj      1  lig       0.226700
     14 O_0d         41.9652   15.8350   13.8147 o2      1  lig      -0.353800
     15 C_0e         40.7723   16.5454   14.1198 ck      1  lig      -0.000400
     16 C_0f         40.4157   17.5289   13.0030 cm      1  lig       0.886300
     17 O_0g         39.4252   18.2758   13.1672 o3      1  lig      -0.841100
     18 O_0h         41.1620   17.5310   11.9993 o4      1  lig      -0.841200
     19 C_0i         41.8775   13.6145   14.7795 cn      1  lig      -0.052500
     20 Br0j         40.7114   12.9632   13.4193 a0      1  lig      -0.118200
     21 C_0k         40.7764   10.9164   15.9496 co      1  lig      -0.114900
     22 H_0l         38.9878    8.0990   15.9708 h0      1  lig       0.351400
     23 H_0m         38.5005    9.6676   15.4573 h6      1  lig       0.351400
     24 H_0n         41.2762    7.6884   16.8616 h7      1  lig       0.124200
     25 H_0o         43.5121    8.6004   17.3610 h8      1  lig       0.156500
     26 H_0p         44.0397   10.9502   16.8547 h9      1  lig       0.097100
     27 H_0q         39.9326   15.8609   14.2528 hb      1  lig       0.047100
     28 H_0r         40.9025   17.0914   15.0552 hd      1  lig       0.047100
     29 H_0s         39.9956   11.5864   15.6198 he      1  lig       0.152400
@<TRIPOS>BOND
     1     1     2    1
     2     1    22    1
     3     1    23    1
     4     2    21    2
     5     2     3    1
     6     3     4    2
     7     3    24    1
     8     4     5    1
     9     4    25    1
    10     5     6    2
    11     5    26    1
    12     6     7    1
    13     6    21    1
    14     7    19    2
    15     7     8    1
    16     8     9    1
    17     9    10    1
    18     9    13    2
    19    10    11    2
    20    10    12    1
    21    13    14    1
    22    13    19    1
    23    14    15    1
    24    15    16    1
    25    15    27    1
    26    15    28    1
    27    16    17    2
    28    16    18    1
    29    19    20    1
    30    21    29    1
