@<TRIPOS>MOLECULE
lig
  31   32 0 0 0
SMALL
NO_CHARGES


@<TRIPOS>ATOM
      1 C_00         38.8521    7.7940   16.4845 c4      1  lig      -0.005400
      2 O_01         39.1640    9.1368   16.1433 o0      1  lig      -0.313300
      3 C_02         40.4581    9.5713   16.3352 c5      1  lig       0.167700
      4 C_03         41.4772    8.7481   16.8518 c6      1  lig      -0.117900
      5 C_04         42.7760    9.2630   17.0197 c7      1  lig      -0.309700
      6 C_05         43.0552   10.5988   16.6723 c8      1  lig      -0.032900
      7 C_06         42.0423   11.4358   16.1546 c9      1  lig      -0.002300
      8 C_07         42.3308   12.8213   15.7959 cb      1  lig      -0.027000
      9 S_08         43.3748   13.7665   16.8257 s0      1  lig      -0.143700
     10 C_09         43.2102   15.1796   15.7984 ci      1  lig      -0.023500
     11 C_0a         43.9500   16.3947   16.2107 cj      1  lig       0.735100
     12 O_0b         43.8582   17.4209   15.5026 o1      1  lig      -0.732700
     13 O_0c         44.6456   16.3657   17.2508 o2      1  lig      -0.732800
     14 C_0d         42.3876   14.9221   14.7244 ck      1  lig       0.168500
     15 O_0e         42.0603   15.8348   13.7845 o3      1  lig      -0.344100
     16 C_0f         40.8300   16.5041   14.0279 cm      1  lig       0.008600
     17 C_0g         40.5470   17.5475   12.9448 cn      1  lig       0.890500
     18 O_0h         41.4120   17.7291   12.0588 o4      1  lig      -0.844600
     19 O_0i         39.4649   18.1683   13.0342 o5      1  lig      -0.844700
     20 C_0j         41.9066   13.5794   14.7351 co      1  lig      -0.023500
     21 Br0k         40.7855   12.9055   13.3482 a0      1  lig      -0.105000
     22 C_0l         40.7422   10.9077   15.9890 cq      1  lig      -0.119100
     23 H_0m         37.7989    7.6056   16.2764 h0      1  lig       0.058900
     24 H_0n         39.4361    7.0866   15.8943 h6      1  lig       0.058900
     25 H_0o         39.0174    7.6034   17.5457 h7      1  lig       0.058900
     26 H_0p         41.2913    7.7209   17.1261 h8      1  lig       0.098200
     27 H_0q         43.5590    8.6323   17.4140 h9      1  lig       0.162400
     28 H_0r         44.0580   10.9795   16.7993 hb      1  lig       0.105000
     29 H_0s         40.0173   15.7767   14.0510 hd      1  lig       0.046200
     30 H_0t         40.8450   17.0109   14.9945 he      1  lig       0.046200
     31 H_0u         39.9464   11.5255   15.5989 hf      1  lig       0.117100
@<TRIPOS>BOND
     1     1     2    1
     2     1    23    1
     3     1    24    1
     4     1    25    1
     5     2     3    1
     6     3    22    2
     7     3     4    1
     8     4     5    2
     9     4    26    1
    10     5     6    1
    11     5    27    1
    12     6     7    2
    13     6    28    1
    14     7     8    1
    15     7    22    1
    16     8    20    2
    17     8     9    1
    18     9    10    1
    19    10    11    1
    20    10    14    2
    21    11    12    2
    22    11    13    1
    23    14    15    1
    24    14    20    1
    25    15    16    1
    26    16    17    1
    27    16    29    1
    28    16    30    1
    29    17    18    2
    30    17    19    1
    31    20    21    1
    32    22    31    1
