@<TRIPOS>MOLECULE
lig
  42   43 0 0 0
SMALL
NO_CHARGES


@<TRIPOS>ATOM
      1 C_00         37.0574    6.0201   15.5715 c4      1  lig      -0.203700
      2 C_01         36.6613    6.9917   16.6944 c5      1  lig       0.258800
      3 C_02         36.7264    6.3206   18.0727 c6      1  lig      -0.216000
      4 N_03         37.5298    8.1657   16.6845 n0      1  lig      -0.735900
      5 C_04         38.8613    8.1465   16.8451 c7      1  lig       0.790300
      6 O_05         39.5077    7.1124   17.0110 o0      1  lig      -0.545900
      7 N_06         39.3777    9.3863   16.7836 ng      1  lig      -0.458400
      8 C_07         40.7401    9.7888   16.8448 c8      1  lig       0.039100
      9 C_08         41.7792    8.9724   17.3118 c9      1  lig      -0.047700
     10 C_09         43.0859    9.4573   17.3660 cb      1  lig      -0.295600
     11 C_0a         43.3652   10.7569   16.9470 ci      1  lig      -0.026700
     12 C_0b         42.3443   11.5877   16.4784 cj      1  lig       0.019100
     13 C_0c         42.6245   12.9340   16.0147 ck      1  lig      -0.050300
     14 S_0d         43.6360   14.0254   16.9149 s0      1  lig      -0.127800
     15 C_0e         43.3652   15.3253   15.7666 cm      1  lig      -0.062700
     16 C_0f         44.0434   16.6123   16.0511 cn      1  lig       0.743600
     17 O_0g         44.7708   16.6963   17.0648 o1      1  lig      -0.734700
     18 O_0h         43.8790   17.5779   15.2720 o2      1  lig      -0.734700
     19 C_0i         42.5145   14.9212   14.7395 co      1  lig       0.239200
     20 O_0j         42.0386   15.7416   13.7736 o3      1  lig      -0.361000
     21 C_0k         40.7906   16.3656   14.0670 cq      1  lig       0.013000
     22 C_0l         40.3516   17.2925   12.9309 cr      1  lig       0.872500
     23 O_0m         41.1068   17.3767   11.9372 o4      1  lig      -0.835900
     24 O_0n         39.2649   17.8954   13.0716 o5      1  lig      -0.835900
     25 C_0o         42.1856   13.5746   14.8668 cs      1  lig      -0.054800
     26 Br0p         41.1521   12.7037   13.5216 a0      1  lig      -0.105800
     27 C_0q         41.0347   11.0942   16.4477 ct      1  lig      -0.155900
     28 H_0r         36.9735    6.4916   14.5918 h0      1  lig       0.052900
     29 H_0s         38.0852    5.6749   15.6884 h6      1  lig       0.052900
     30 H_0t         36.4104    5.1425   15.5677 h7      1  lig       0.052900
     31 H_0u         35.6305    7.3110   16.5295 h8      1  lig       0.028800
     32 H_0v         36.4222    7.0102   18.8608 h9      1  lig       0.059300
     33 H_0w         36.0625    5.4568   18.1188 hb      1  lig       0.059300
     34 H_0x         37.7356    5.9760   18.3013 hd      1  lig       0.059300
     35 H_0y         37.0794    9.0573   16.5417 he      1  lig       0.365200
     36 H_0z         38.7197   10.1329   16.6175 hf      1  lig       0.277500
     37 H_10         41.5991    7.9639   17.6500 hg      1  lig       0.099600
     38 H_11         43.8791    8.8263   17.7392 hh      1  lig       0.155900
     39 H_12         44.3805   11.1222   16.9988 hi      1  lig       0.104200
     40 H_13         40.0404   15.5854   14.1974 hj      1  lig       0.045600
     41 H_14         40.8239   16.9207   15.0061 hk      1  lig       0.045600
     42 H_15         40.2377   11.7353   16.0992 hl      1  lig       0.154800
@<TRIPOS>BOND
     1     1     2    1
     2     1    28    1
     3     1    29    1
     4     1    30    1
     5     2     3    1
     6     2     4    1
     7     2    31    1
     8     3    32    1
     9     3    33    1
    10     3    34    1
    11     4     5    1
    12     4    35    1
    13     5     6    2
    14     5     7    1
    15     7     8    1
    16     7    36    1
    17     8    27    2
    18     8     9    1
    19     9    10    2
    20     9    37    1
    21    10    11    1
    22    10    38    1
    23    11    12    2
    24    11    39    1
    25    12    13    1
    26    12    27    1
    27    13    25    2
    28    13    14    1
    29    14    15    1
    30    15    16    1
    31    15    19    2
    32    16    17    2
    33    16    18    1
    34    19    20    1
    35    19    25    1
    36    20    21    1
    37    21    22    1
    38    21    40    1
    39    21    41    1
    40    22    23    2
    41    22    24    1
    42    25    26    1
    43    27    42    1
