@<TRIPOS>MOLECULE
lig
  35   36 0 0 0
SMALL
NO_CHARGES


@<TRIPOS>ATOM
      1 C_00         36.6595    7.1658   17.2825 c4      1  lig       0.026800
      2 O_01         37.5083    8.2225   16.8671 o0      1  lig      -0.445000
      3 C_02         38.8187    8.1726   17.1493 c5      1  lig       0.808300
      4 O_03         39.3752    7.2244   17.7047 o1      1  lig      -0.623300
      5 N_04         39.3913    9.3618   16.7178 n0      1  lig      -0.278000
      6 C_05         40.7401    9.7888   16.8448 c6      1  lig      -0.046000
      7 C_06         41.7792    8.9724   17.3118 c7      1  lig      -0.094100
      8 C_07         43.0859    9.4573   17.3660 c8      1  lig      -0.260200
      9 C_08         43.3652   10.7569   16.9470 c9      1  lig      -0.022700
     10 C_09         42.3443   11.5877   16.4784 cb      1  lig       0.028900
     11 C_0a         42.6245   12.9340   16.0147 ci      1  lig      -0.047300
     12 S_0b         43.6360   14.0254   16.9149 s0      1  lig      -0.137700
     13 C_0c         43.3652   15.3253   15.7666 cj      1  lig      -0.037500
     14 C_0d         44.0464   16.6111   16.0505 ck      1  lig       0.736300
     15 O_0e         44.7740   16.6941   17.0640 o2      1  lig      -0.732800
     16 O_0f         43.8841   17.5767   15.2709 o3      1  lig      -0.732800
     17 C_0g         42.5145   14.9212   14.7395 cm      1  lig       0.210500
     18 O_0h         42.0409   15.7421   13.7728 o4      1  lig      -0.351600
     19 C_0i         40.7605   16.3124   14.0330 cn      1  lig       0.004600
     20 C_0j         40.3270   17.2432   12.8986 co      1  lig       0.868800
     21 O_0k         39.2130   17.8008   13.0106 o5      1  lig      -0.833800
     22 O_0l         41.1154   17.3805   11.9374 o6      1  lig      -0.833800
     23 C_0m         42.1856   13.5746   14.8668 cq      1  lig      -0.054200
     24 Br0n         41.1965   12.6902   13.4976 a0      1  lig      -0.102500
     25 C_0o         41.0347   11.0942   16.4477 cr      1  lig      -0.126400
     26 H_0p         35.6351    7.3692   16.9707 h0      1  lig       0.074000
     27 H_0q         36.9696    6.2197   16.8372 h6      1  lig       0.074000
     28 H_0r         36.6706    7.0618   18.3683 h7      1  lig       0.074000
     29 H_0s         38.7407   10.0195   16.3138 h8      1  lig       0.213800
     30 H_0t         41.6050    7.9561   17.6278 h9      1  lig       0.149900
     31 H_0u         43.8812    8.8223   17.7275 hb      1  lig       0.142300
     32 H_0v         44.3841   11.1146   16.9778 hd      1  lig       0.102300
     33 H_0w         40.0358   15.5022   14.1145 he      1  lig       0.049200
     34 H_0x         40.7356   16.8455   14.9852 hf      1  lig       0.049200
     35 H_0y         40.2344   11.7412   16.1190 hg      1  lig       0.146800
@<TRIPOS>BOND
     1     1     2    1
     2     1    26    1
     3     1    27    1
     4     1    28    1
     5     2     3    1
     6     3     4    2
     7     3     5    1
     8     5     6    1
     9     5    29    1
    10     6     7    1
    11     6    25    2
    12     7     8    2
    13     7    30    1
    14     8     9    1
    15     8    31    1
    16     9    10    2
    17     9    32    1
    18    10    11    1
    19    10    25    1
    20    11    12    1
    21    11    23    2
    22    12    13    1
    23    13    14    1
    24    13    17    2
    25    14    15    2
    26    14    16    1
    27    17    18    1
    28    17    23    1
    29    18    19    1
    30    19    20    1
    31    19    33    1
    32    19    34    1
    33    20    21    2
    34    20    22    1
    35    23    24    1
    36    25    35    1
