@<TRIPOS>MOLECULE
lig
  48   50 0 0 0
SMALL
NO_CHARGES


@<TRIPOS>ATOM
      1 O_00         39.1872   17.7319   12.9711 o0      1  lig      -0.841800
      2 C_01         40.3302   17.2264   12.9065 c4      1  lig       0.882800
      3 O_02         41.1481   17.4091   11.9779 o1      1  lig      -0.841900
      4 C_03         40.7697   16.2873   14.0319 c5      1  lig       0.031200
      5 O_04         42.0557   15.7410   13.7696 o2      1  lig      -0.351600
      6 C_05         42.5145   14.9212   14.7395 c6      1  lig       0.155400
      7 C_06         42.1856   13.5746   14.8668 c7      1  lig       0.043200
      8 Br07         41.1590   12.6662   13.5413 a0      1  lig      -0.114900
      9 C_08         42.6245   12.9340   16.0147 c8      1  lig      -0.111900
     10 C_09         42.3443   11.5877   16.4784 c9      1  lig       0.009300
     11 C_0a         43.3652   10.7569   16.9470 cb      1  lig      -0.028500
     12 C_0b         43.0859    9.4573   17.3660 ci      1  lig      -0.293000
     13 C_0c         41.7792    8.9724   17.3118 cj      1  lig      -0.103600
     14 C_0d         40.7401    9.7888   16.8448 ck      1  lig       0.055400
     15 N_0e         39.4485    9.2406   16.7948 n0      1  lig      -0.644900
     16 C_0f         39.1815    7.8314   17.0618 cm      1  lig      -0.035100
     17 C_0g         39.6686    6.9137   15.9440 cn      1  lig       0.035400
     18 C_0h         41.1881    7.0661   15.7647 co      1  lig       0.023200
     19 C_0i         41.7017    6.2017   14.6013 cq      1  lig      -0.107600
     20 C_0j         40.9517    6.5196   13.2971 cr      1  lig       0.026200
     21 C_0k         39.4321    6.3672   13.4765 cs      1  lig      -0.018900
     22 C_0l         38.9186    7.2316   14.6399 ct      1  lig      -0.010400
     23 C_0m         41.0347   11.0942   16.4477 cw      1  lig      -0.014600
     24 S_0n         43.6360   14.0254   16.9149 s0      1  lig      -0.149200
     25 C_0o         43.3652   15.3253   15.7666 cA      1  lig      -0.002000
     26 C_0p         44.0486   16.6108   16.0385 cB      1  lig       0.726700
     27 O_0q         43.8781   17.5598   15.2428 o3      1  lig      -0.731500
     28 O_0r         44.7767   16.7158   17.0512 o4      1  lig      -0.731600
     29 H_0s         40.0442   15.4789   14.1331 h0      1  lig       0.038300
     30 H_0t         40.7670   16.8505   14.9669 h6      1  lig       0.038300
     31 H_0u         44.3826   11.1175   16.9916 h7      1  lig       0.110100
     32 H_0v         43.8816    8.8264   17.7339 h8      1  lig       0.145300
     33 H_0w         41.5761    7.9619   17.6355 h9      1  lig       0.135400
     34 H_0x         38.7190    9.7741   16.3443 hb      1  lig       0.351000
     35 H_0y         38.1330    7.6479   17.2935 hd      1  lig       0.063400
     36 H_0z         39.7226    7.5861   17.9760 he      1  lig       0.063400
     37 H_10         39.4374    5.8967   16.2607 hf      1  lig      -0.014200
     38 H_11         41.4318    8.1121   15.5789 hg      1  lig       0.019100
     39 H_12         41.7008    6.7916   16.6866 hh      1  lig       0.019100
     40 H_13         42.7712    6.3608   14.4636 hi      1  lig       0.004500
     41 H_14         41.5784    5.1468   14.8467 hj      1  lig       0.004500
     42 H_15         41.1828    7.5366   12.9805 hk      1  lig       0.027600
     43 H_16         41.2996    5.8641   12.4988 hl      1  lig       0.027600
     44 H_17         38.9194    6.6417   12.5546 hm      1  lig      -0.011700
     45 H_18         39.1885    5.3212   13.6622 hq      1  lig      -0.011700
     46 H_19         37.8491    7.0725   14.7776 hr      1  lig       0.017800
     47 H_1a         39.0419    8.2865   14.3944 ht      1  lig       0.017800
     48 H_1b         40.2540   11.7471   16.0927 hu      1  lig       0.098600
@<TRIPOS>BOND
     1     1     2    2
     2     2     3    1
     3     2     4    1
     4     4     5    1
     5     4    29    1
     6     4    30    1
     7     5     6    1
     8     6    25    2
     9     6     7    1
    10     7     8    1
    11     7     9    2
    12     9    10    1
    13     9    24    1
    14    10    23    1
    15    10    11    2
    16    11    12    1
    17    11    31    1
    18    12    13    2
    19    12    32    1
    20    13    14    1
    21    13    33    1
    22    14    15    1
    23    14    23    2
    24    15    16    1
    25    15    34    1
    26    16    17    1
    27    16    35    1
    28    16    36    1
    29    17    22    1
    30    17    18    1
    31    17    37    1
    32    18    19    1
    33    18    38    1
    34    18    39    1
    35    19    20    1
    36    19    40    1
    37    19    41    1
    38    20    21    1
    39    20    42    1
    40    20    43    1
    41    21    22    1
    42    21    44    1
    43    21    45    1
    44    22    46    1
    45    22    47    1
    46    23    48    1
    47    24    25    1
    48    25    26    1
    49    26    27    2
    50    26    28    1
