@<TRIPOS>MOLECULE
lig
  42   44 0 0 0
SMALL
NO_CHARGES


@<TRIPOS>ATOM
      1 O_00         41.3359   17.7345   12.0655 o0      1  lig      -0.831700
      2 C_01         40.5033   17.5778   12.9865 c4      1  lig       0.852500
      3 O_02         39.4360   18.2181   13.1106 o1      1  lig      -0.831800
      4 C_03         40.8111   16.5423   14.0704 c5      1  lig       0.025000
      5 O_04         42.0187   15.8482   13.7866 o2      1  lig      -0.370900
      6 C_05         42.3640   14.9373   14.7216 c6      1  lig       0.215700
      7 C_06         41.8832   13.5947   14.7447 c7      1  lig      -0.029700
      8 Br07         40.6955   12.9322   13.4088 a0      1  lig      -0.069600
      9 C_08         42.3216   12.8413   15.8032 c8      1  lig      -0.076800
     10 C_09         42.0378   11.4574   16.1718 c9      1  lig      -0.015700
     11 C_0a         43.0880   10.5560   16.4532 cb      1  lig      -0.025600
     12 C_0b         42.8137    9.2218   16.8103 ci      1  lig      -0.254100
     13 C_0c         41.4823    8.7730   16.8894 cj      1  lig      -0.126500
     14 C_0d         40.4256    9.6609   16.6100 ck      1  lig       0.080100
     15 N_0e         39.0856    9.2639   16.6793 n0      1  lig      -0.597000
     16 S_0f         38.4178    7.6851   16.9540 s0      1  lig       0.986800
     17 O_0g         39.0080    7.1971   18.2103 o3      1  lig      -0.536900
     18 O_0h         36.9627    7.8421   16.8089 o4      1  lig      -0.568700
     19 C_0i         39.0362    6.7270   15.5748 cm      1  lig       0.001900
     20 C_0j         38.2852    6.6759   14.3838 cn      1  lig      -0.232000
     21 C_0k         38.7667    5.9320   13.2887 co      1  lig      -0.125400
     22 C_0l         39.9924    5.2434   13.3877 cq      1  lig       0.290300
     23 F_0m         40.4534    4.5292   12.3340 f0      1  lig      -0.174100
     24 C_0n         40.7391    5.2967   14.5820 cr      1  lig      -0.271400
     25 C_0o         40.2622    6.0390   15.6804 cs      1  lig      -0.136900
     26 C_0p         40.7049   10.9955   16.2530 ct      1  lig      -0.010300
     27 S_0q         43.3793   13.7909   16.8146 s1      1  lig      -0.142900
     28 C_0r         43.2010   15.1994   15.7834 cw      1  lig      -0.027000
     29 C_0s         43.9423   16.4178   16.1828 cA      1  lig       0.733300
     30 O_0t         43.8332   17.4437   15.4767 o5      1  lig      -0.732000
     31 O_0u         44.6565   16.3915   17.2103 o6      1  lig      -0.732000
     32 H_0v         40.8732   17.0602   15.0292 h0      1  lig       0.046700
     33 H_0w         39.9877   15.8296   14.1346 h6      1  lig       0.046700
     34 H_0x         44.1148   10.8877   16.4045 h7      1  lig       0.117000
     35 H_0y         43.6260    8.5439   17.0270 h8      1  lig       0.145500
     36 H_0z         41.2937    7.7490   17.1714 h9      1  lig       0.158100
     37 H_10         38.4177    9.9669   16.3987 hb      1  lig       0.382900
     38 H_11         37.3473    7.2064   14.3086 hd      1  lig       0.193200
     39 H_12         38.1969    5.8898   12.3721 he      1  lig       0.169400
     40 H_13         41.6780    4.7680   14.6546 hf      1  lig       0.187400
     41 H_14         40.8379    6.0779   16.5932 hg      1  lig       0.183800
     42 H_15         39.8926   11.6719   16.0292 hh      1  lig       0.102700
@<TRIPOS>BOND
     1     1     2    2
     2     2     3    1
     3     2     4    1
     4     4     5    1
     5     4    32    1
     6     4    33    1
     7     5     6    1
     8     6    28    2
     9     6     7    1
    10     7     8    1
    11     7     9    2
    12     9    10    1
    13     9    27    1
    14    10    26    1
    15    10    11    2
    16    11    12    1
    17    11    34    1
    18    12    13    2
    19    12    35    1
    20    13    14    1
    21    13    36    1
    22    14    15    1
    23    14    26    2
    24    15    16    1
    25    15    37    1
    26    16    17    2
    27    16    18    2
    28    16    19    1
    29    19    25    1
    30    19    20    2
    31    20    21    1
    32    20    38    1
    33    21    22    2
    34    21    39    1
    35    22    23    1
    36    22    24    1
    37    24    25    2
    38    24    40    1
    39    25    41    1
    40    26    42    1
    41    27    28    1
    42    28    29    1
    43    29    30    2
    44    29    31    1
