@<TRIPOS>MOLECULE
lig
  42   44 0 0 0
SMALL
NO_CHARGES


@<TRIPOS>ATOM
      1 O_00         41.4191   17.6003   11.9575 o0      1  lig      -0.841200
      2 C_01         40.5356   17.4939   12.8367 c4      1  lig       0.885300
      3 O_02         39.4594   18.1303   12.8671 o1      1  lig      -0.841300
      4 C_03         40.7983   16.5073   13.9770 c5      1  lig       0.010600
      5 O_04         42.0652   15.8703   13.8290 o2      1  lig      -0.363800
      6 C_05         42.3682   14.9604   14.7843 c6      1  lig       0.218200
      7 C_06         41.8945   13.6150   14.7768 c7      1  lig      -0.024100
      8 Br07         40.7639   12.9503   13.3926 a0      1  lig      -0.105900
      9 C_08         42.3354   12.8406   15.8190 c8      1  lig      -0.042100
     10 C_09         42.0585   11.4474   16.1564 c9      1  lig      -0.025900
     11 C_0a         43.0853   10.6026   16.6322 cb      1  lig      -0.032600
     12 C_0b         42.8174    9.2595   16.9591 ci      1  lig      -0.289000
     13 C_0c         41.5160    8.7447   16.8124 cj      1  lig      -0.139600
     14 C_0d         40.4830    9.5756   16.3374 ck      1  lig       0.147100
     15 N_0e         39.1988    9.0234   16.2104 n0      1  lig      -0.767700
     16 C_0f         38.9954    7.6289   15.8731 cm      1  lig       0.441400
     17 C_0g         39.1357    7.3709   14.3719 cn      1  lig      -0.104000
     18 C_0h         38.2665    6.1411   14.1220 co      1  lig      -0.007700
     19 C_0i         37.0665    6.3370   15.0501 cq      1  lig      -0.020500
     20 C_0j         37.5932    7.1312   16.2550 cr      1  lig      -0.099200
     21 C_0k         40.7558   10.9195   16.0117 cs      1  lig      -0.090800
     22 S_0l         43.3865   13.7731   16.8529 s0      1  lig      -0.143800
     23 C_0m         43.2022   15.2033   15.8529 ct      1  lig      -0.045300
     24 C_0n         43.9483   16.4111   16.2795 cw      1  lig       0.734700
     25 O_0o         44.6544   16.3479   17.3096 o3      1  lig      -0.731600
     26 O_0p         43.8504   17.4622   15.6071 o4      1  lig      -0.731700
     27 H_0q         39.9832   15.7838   14.0366 h0      1  lig       0.043000
     28 H_0r         40.7969   17.0507   14.9222 h6      1  lig       0.043000
     29 H_0s         44.0910   10.9807   16.7453 h7      1  lig       0.106400
     30 H_0t         43.6120    8.6235   17.3205 h8      1  lig       0.152800
     31 H_0u         41.3230    7.7123   17.0655 h9      1  lig       0.119700
     32 H_0v         38.4086    9.5436   16.5632 hb      1  lig       0.356800
     33 H_0w         39.7460    7.0528   16.4141 hd      1  lig      -0.032600
     34 H_0x         38.8366    8.2279   13.7684 he      1  lig       0.030600
     35 H_0y         40.1741    7.1434   14.1309 hf      1  lig       0.030600
     36 H_0z         37.9338    6.1297   13.0841 hg      1  lig      -0.006600
     37 H_10         38.7950    5.2065   14.3099 hh      1  lig      -0.006600
     38 H_11         36.3000    6.9185   14.5378 hi      1  lig       0.001500
     39 H_12         36.6125    5.3899   15.3419 hj      1  lig       0.001500
     40 H_13         37.6410    6.5071   17.1474 hk      1  lig       0.028300
     41 H_14         36.9279    7.9643   16.4817 hl      1  lig       0.028300
     42 H_15         39.9765   11.5733   15.6517 hm      1  lig       0.113800
@<TRIPOS>BOND
     1     1     2    2
     2     2     3    1
     3     2     4    1
     4     4     5    1
     5     4    27    1
     6     4    28    1
     7     5     6    1
     8     6    23    2
     9     6     7    1
    10     7     8    1
    11     7     9    2
    12     9    10    1
    13     9    22    1
    14    10    21    1
    15    10    11    2
    16    11    12    1
    17    11    29    1
    18    12    13    2
    19    12    30    1
    20    13    14    1
    21    13    31    1
    22    14    15    1
    23    14    21    2
    24    15    16    1
    25    15    32    1
    26    16    20    1
    27    16    17    1
    28    16    33    1
    29    17    18    1
    30    17    34    1
    31    17    35    1
    32    18    19    1
    33    18    36    1
    34    18    37    1
    35    19    20    1
    36    19    38    1
    37    19    39    1
    38    20    40    1
    39    20    41    1
    40    21    42    1
    41    22    23    1
    42    23    24    1
    43    24    25    2
    44    24    26    1
