@<TRIPOS>MOLECULE
lig
  43   45 0 0 0
SMALL
NO_CHARGES


@<TRIPOS>ATOM
      1 C_00         38.9076    7.7568   15.4198 c4      1  lig       0.447900
      2 H_01         39.3159    7.0723   16.1634 h0      1  lig      -0.027800
      3 O_02         41.2295   17.5367   11.9444 o0      1  lig      -0.841500
      4 C_03         40.3854   17.4296   12.8614 c5      1  lig       0.882500
      5 O_04         39.3048   18.0555   12.9318 o1      1  lig      -0.841600
      6 C_05         40.7069   16.4569   13.9988 c6      1  lig       0.027300
      7 O_06         41.9716   15.8287   13.8015 o2      1  lig      -0.361000
      8 C_07         42.3248   14.9326   14.7526 c7      1  lig       0.194400
      9 C_08         41.8775   13.6145   14.7795 c8      1  lig      -0.008100
     10 Br09         40.7150   12.9156   13.4386 a0      1  lig      -0.105300
     11 C_0a         42.3473   12.8247   15.8292 c9      1  lig      -0.047400
     12 C_0b         42.0577   11.4350   16.1601 cb      1  lig      -0.045100
     13 C_0c         43.0417   10.5800   16.6715 ci      1  lig      -0.031500
     14 C_0d         42.7506    9.2417   16.9424 cj      1  lig      -0.273800
     15 C_0e         41.4815    8.7321   16.6725 ck      1  lig      -0.159200
     16 C_0f         40.4829    9.5699   16.1594 cm      1  lig       0.172900
     17 N_0g         39.1835    9.1385   15.8446 n0      1  lig      -0.775600
     18 C_0h         37.3829    7.5402   15.3340 cn      1  lig      -0.125200
     19 C_0i         37.0173    6.1412   14.7978 co      1  lig       0.097800
     20 O_0j         37.7153    5.8364   13.4582 o3      1  lig      -0.410700
     21 C_0k         39.2402    6.0199   13.5606 cq      1  lig       0.122800
     22 C_0l         39.6099    7.4194   14.0884 cr      1  lig      -0.161700
     23 C_0m         40.7764   10.9164   15.9496 cs      1  lig      -0.086400
     24 S_0n         43.4366   13.7822   16.8006 s0      1  lig      -0.145400
     25 C_0o         43.2082   15.1991   15.7938 ct      1  lig      -0.028400
     26 C_0p         43.9621   16.4179   16.1726 cw      1  lig       0.737800
     27 O_0q         44.7100   16.3742   17.1738 o4      1  lig      -0.734400
     28 O_0r         43.8292   17.4586   15.4900 o5      1  lig      -0.734500
     29 H_0s         39.9017   15.7273   14.1010 h6      1  lig       0.038500
     30 H_0t         40.7422   17.0094   14.9380 h7      1  lig       0.038500
     31 H_0u         44.0401   10.9492   16.8558 h8      1  lig       0.109200
     32 H_0v         43.5114    8.5980   17.3587 h9      1  lig       0.148900
     33 H_0w         41.2791    7.6877   16.8608 hb      1  lig       0.122500
     34 H_0x         38.4027    9.7252   16.1016 hd      1  lig       0.343200
     35 H_0y         36.9300    7.6611   16.3180 he      1  lig       0.056000
     36 H_0z         36.9314    8.2958   14.6910 hf      1  lig       0.056000
     37 H_10         37.3180    5.3761   15.5136 hg      1  lig       0.032100
     38 H_11         35.9396    6.0447   14.6663 hh      1  lig       0.032100
     39 H_12         39.6441    5.2655   14.2357 hi      1  lig       0.023700
     40 H_13         39.7049    5.8553   12.5885 hj      1  lig       0.023700
     41 H_14         39.3560    8.1607   13.3306 hk      1  lig       0.060300
     42 H_15         40.6918    7.4634   14.2136 hl      1  lig       0.060300
     43 H_16         40.0030   11.5907   15.6162 hm      1  lig       0.116200
@<TRIPOS>BOND
     1     1     2    1
     2     1    18    1
     3     1    22    1
     4     3     4    2
     5     4     5    1
     6     4     6    1
     7     6     7    1
     8     6    29    1
     9     6    30    1
    10     7     8    1
    11     8     9    1
    12     8    25    2
    13     9    10    1
    14     9    11    2
    15    11    12    1
    16    11    24    1
    17    12    13    2
    18    12    23    1
    19    13    14    1
    20    13    31    1
    21    14    15    2
    22    14    32    1
    23    15    16    1
    24    15    33    1
    25    16    17    1
    26    16    23    2
    27     1    17    1
    28    17    34    1
    29    18    19    1
    30    18    35    1
    31    18    36    1
    32    19    20    1
    33    19    37    1
    34    19    38    1
    35    20    21    1
    36    21    22    1
    37    21    39    1
    38    21    40    1
    39    22    41    1
    40    22    42    1
    41    23    43    1
    42    24    25    1
    43    25    26    1
    44    26    27    2
    45    26    28    1
