@<TRIPOS>MOLECULE
lig
  48   50 0 0 0
SMALL
NO_CHARGES


@<TRIPOS>ATOM
      1 O_00         41.4867   17.7482   12.0673 o0      1  lig      -0.840700
      2 C_01         40.5664   17.5761   12.8964 c4      1  lig       0.878000
      3 O_02         39.4855   18.2052   12.9246 o1      1  lig      -0.840700
      4 C_03         40.7845   16.5110   13.9735 c5      1  lig       0.020800
      5 O_04         42.0386   15.8543   13.8050 o2      1  lig      -0.362800
      6 C_05         42.3405   14.9357   14.7523 c6      1  lig       0.200900
      7 C_06         41.9226   13.5730   14.6979 c7      1  lig      -0.013500
      8 Br07         40.9097   12.8861   13.2359 a0      1  lig      -0.095300
      9 C_08         42.2783   12.8150   15.7837 c8      1  lig      -0.064300
     10 C_09         42.0207   11.4118   16.0935 c9      1  lig      -0.038100
     11 C_0a         43.0285   10.6016   16.6613 cb      1  lig      -0.035000
     12 C_0b         42.7790    9.2486   16.9615 ci      1  lig      -0.274800
     13 C_0c         41.5154    8.6893   16.6954 cj      1  lig      -0.149900
     14 C_0d         40.5019    9.4854   16.1279 ck      1  lig       0.157000
     15 N_0e         39.2615    8.8686   15.8845 n0      1  lig      -0.738800
     16 C_0f         39.0017    7.4432   15.9074 cm      1  lig       0.178300
     17 C_0g         37.8800    7.0952   16.9015 cn      1  lig       0.001900
     18 C_0h         37.8402    5.6235   17.3408 co      1  lig      -0.000500
     19 C_0i         37.7134    4.6087   16.1910 cq      1  lig       0.012100
     20 C_0j         39.0143    4.4568   15.3854 cr      1  lig       0.016500
     21 C_0k         39.2002    5.4613   14.2336 cs      1  lig       0.006700
     22 C_0l         38.7313    6.9046   14.4928 ct      1  lig      -0.024200
     23 C_0m         40.7562   10.8392   15.8293 cw      1  lig      -0.019700
     24 S_0n         43.1753   13.7863   16.9220 s0      1  lig      -0.140600
     25 C_0o         43.0446   15.2094   15.9038 cA      1  lig      -0.033900
     26 C_0p         43.6741   16.4501   16.4156 cB      1  lig       0.737300
     27 O_0q         44.2669   16.4128   17.5159 o3      1  lig      -0.734000
     28 O_0r         43.6044   17.4989   15.7361 o4      1  lig      -0.734000
     29 H_0s         39.9941   15.7641   13.8960 h0      1  lig       0.042100
     30 H_0t         40.6889   16.9590   14.9642 h6      1  lig       0.042100
     31 H_0u         44.0021   11.0173   16.8767 h7      1  lig       0.113100
     32 H_0v         43.5573    8.6409   17.3989 h8      1  lig       0.147200
     33 H_0w         41.3381    7.6508   16.9346 h9      1  lig       0.129600
     34 H_0x         38.4969    9.4598   15.5920 hb      1  lig       0.339700
     35 H_0y         39.9194    6.9819   16.2723 hd      1  lig       0.065200
     36 H_0z         38.0023    7.7112   17.7924 he      1  lig       0.006600
     37 H_10         36.9147    7.3799   16.4828 hf      1  lig       0.006600
     38 H_11         38.7221    5.3947   17.9391 hg      1  lig      -0.016500
     39 H_12         36.9923    5.4937   18.0133 hh      1  lig      -0.016500
     40 H_13         37.4767    3.6403   16.6318 hi      1  lig      -0.006700
     41 H_14         36.8729    4.8501   15.5405 hj      1  lig      -0.006700
     42 H_15         39.8635    4.5619   16.0606 hk      1  lig      -0.019900
     43 H_16         39.0851    3.4400   14.9992 hl      1  lig      -0.019900
     44 H_17         40.2534    5.4934   13.9545 hm      1  lig       0.001100
     45 H_18         38.6832    5.0699   13.3574 hq      1  lig       0.001100
     46 H_19         37.6678    6.9895   14.2695 hr      1  lig       0.012800
     47 H_1a         39.2244    7.5514   13.7672 ht      1  lig       0.012800
     48 H_1b         40.0032   11.4699   15.3891 hu      1  lig       0.097500
@<TRIPOS>BOND
     1     1     2    2
     2     2     3    1
     3     2     4    1
     4     4     5    1
     5     4    29    1
     6     4    30    1
     7     5     6    1
     8     6    25    2
     9     6     7    1
    10     7     8    1
    11     7     9    2
    12     9    10    1
    13     9    24    1
    14    10    23    1
    15    10    11    2
    16    11    12    1
    17    11    31    1
    18    12    13    2
    19    12    32    1
    20    13    14    1
    21    13    33    1
    22    14    15    1
    23    14    23    2
    24    15    16    1
    25    15    34    1
    26    16    22    1
    27    16    17    1
    28    16    35    1
    29    17    18    1
    30    17    36    1
    31    17    37    1
    32    18    19    1
    33    18    38    1
    34    18    39    1
    35    19    20    1
    36    19    40    1
    37    19    41    1
    38    20    21    1
    39    20    42    1
    40    20    43    1
    41    21    22    1
    42    21    44    1
    43    21    45    1
    44    22    46    1
    45    22    47    1
    46    23    48    1
    47    24    25    1
    48    25    26    1
    49    26    27    2
    50    26    28    1
