@<TRIPOS>MOLECULE
lig
  41   43 0 0 0
SMALL
NO_CHARGES


@<TRIPOS>ATOM
      1 O_00         41.1487   17.2240   11.7776 o0      1  lig      -0.747300
      2 C_01         40.3529   17.1026   12.7358 c4      1  lig       0.764100
      3 O_02         39.2219   17.6321   12.8053 o1      1  lig      -0.747400
      4 C_03         40.7697   16.2194   13.9140 c5      1  lig       0.020500
      5 O_04         42.0931   15.7293   13.7432 o2      1  lig      -0.360200
      6 C_05         42.5145   14.9212   14.7395 c6      1  lig       0.210500
      7 C_06         42.1856   13.5746   14.8668 c7      1  lig      -0.061900
      8 Br07         41.2074   12.6499   13.5167 a0      1  lig      -0.162900
      9 C_08         42.6245   12.9340   16.0147 c8      1  lig      -0.036200
     10 C_09         42.3443   11.5877   16.4784 c9      1  lig      -0.056500
     11 C_0a         43.3652   10.7569   16.9470 cb      1  lig      -0.053000
     12 C_0b         43.0859    9.4573   17.3660 ci      1  lig      -0.256300
     13 C_0c         41.7792    8.9724   17.3118 cj      1  lig      -0.161000
     14 C_0d         40.7401    9.7888   16.8448 ck      1  lig       0.148700
     15 O_0e         39.3981    9.3768   16.7741 o3      1  lig      -0.326600
     16 C_0f         38.9977    7.9742   16.7120 cm      1  lig       0.015000
     17 C_0g         39.0447    7.4076   15.2989 cn      1  lig       0.035500
     18 C_0h         40.2643    7.0598   14.7072 co      1  lig      -0.139600
     19 C_0i         40.2940    6.5235   13.4197 cq      1  lig      -0.115200
     20 C_0j         39.1061    6.3134   12.7236 cr      1  lig      -0.106000
     21 C_0k         37.8875    6.6562   13.3069 cs      1  lig      -0.236600
     22 C_0l         37.8553    7.2050   14.5894 ct      1  lig      -0.126900
     23 C_0m         41.0347   11.0942   16.4477 cw      1  lig      -0.076300
     24 S_0n         43.6360   14.0254   16.9149 s0      1  lig      -0.126800
     25 C_0o         43.3652   15.3253   15.7666 cA      1  lig      -0.061500
     26 C_0p         44.0488   16.6108   16.0384 cB      1  lig       0.795300
     27 O_0q         43.8750   17.5611   15.2449 o4      1  lig      -0.763400
     28 O_0r         44.7786   16.7152   17.0498 o5      1  lig      -0.763500
     29 H_0s         40.7111   16.7969   14.8377 h0      1  lig       0.064100
     30 H_0t         40.0558   15.3977   13.9940 h6      1  lig       0.064100
     31 H_0u         44.3838   11.1150   16.9829 h7      1  lig       0.106800
     32 H_0v         43.8832    8.8267   17.7310 h8      1  lig       0.143700
     33 H_0w         41.5990    7.9598   17.6387 h9      1  lig       0.109500
     34 H_0x         39.6605    7.3657   17.3291 hb      1  lig       0.068100
     35 H_0y         37.9822    7.8643   17.0961 hd      1  lig       0.068100
     36 H_0z         41.1904    7.2050   15.2442 he      1  lig       0.140000
     37 H_10         41.2391    6.2694   12.9628 hf      1  lig       0.151100
     38 H_11         39.1289    5.8824   11.7335 hg      1  lig       0.113700
     39 H_12         36.9663    6.4955   12.7664 hh      1  lig       0.124800
     40 H_13         36.9065    7.4735   15.0304 hi      1  lig       0.109000
     41 H_14         40.2305   11.7346   16.1160 hj      1  lig       0.232500
@<TRIPOS>BOND
     1     1     2    2
     2     2     3    1
     3     2     4    1
     4     4     5    1
     5     4    29    1
     6     4    30    1
     7     5     6    1
     8     6    25    2
     9     6     7    1
    10     7     8    1
    11     7     9    2
    12     9    10    1
    13     9    24    1
    14    10    23    1
    15    10    11    2
    16    11    12    1
    17    11    31    1
    18    12    13    2
    19    12    32    1
    20    13    14    1
    21    13    33    1
    22    14    15    1
    23    14    23    2
    24    15    16    1
    25    16    17    1
    26    16    34    1
    27    16    35    1
    28    17    22    1
    29    17    18    2
    30    18    19    1
    31    18    36    1
    32    19    20    2
    33    19    37    1
    34    20    21    1
    35    20    38    1
    36    21    22    2
    37    21    39    1
    38    22    40    1
    39    23    41    1
    40    24    25    1
    41    25    26    1
    42    26    27    2
    43    26    28    1
