@<TRIPOS>MOLECULE
lig
  49   51 0 0 0
SMALL
NO_CHARGES


@<TRIPOS>ATOM
      1 H_00         39.3159    7.0723   16.1634 h0      1  lig       0.114700
      2 C_01         38.9076    7.7568   15.4198 c4      1  lig       0.097900
      3 C_02         35.5544    5.2757   12.3072 c5      1  lig      -0.105200
      4 C_03         37.0750    5.4456   12.2999 c6      1  lig       0.566700
      5 O_04         37.6775    5.2201   11.2503 o0      1  lig      -0.599700
      6 N_05         37.7153    5.8364   13.4582 n0      1  lig      -0.213800
      7 C_06         37.0173    6.1412   14.7978 c7      1  lig      -0.008200
      8 C_07         37.3829    7.5402   15.3340 c8      1  lig      -0.157500
      9 N_08         39.1835    9.1385   15.8446 ng      1  lig      -0.617100
     10 C_09         40.4829    9.5699   16.1594 c9      1  lig       0.057700
     11 C_0a         41.4815    8.7321   16.6725 cb      1  lig      -0.051000
     12 C_0b         42.7506    9.2417   16.9424 ci      1  lig      -0.291900
     13 C_0c         43.0417   10.5800   16.6715 cj      1  lig      -0.042600
     14 C_0d         42.0577   11.4350   16.1601 ck      1  lig      -0.029300
     15 C_0e         42.3473   12.8247   15.8292 cm      1  lig      -0.033000
     16 S_0f         43.4366   13.7822   16.8006 s0      1  lig      -0.137300
     17 C_0g         43.2082   15.1991   15.7938 cn      1  lig      -0.026500
     18 C_0h         43.9665   16.4136   16.1781 co      1  lig       0.727800
     19 O_0i         44.7099   16.3644   17.1823 o1      1  lig      -0.730800
     20 O_0j         43.8413   17.4562   15.4971 o2      1  lig      -0.730800
     21 C_0k         42.3248   14.9326   14.7526 cq      1  lig       0.188100
     22 O_0l         41.9730   15.8282   13.8005 o3      1  lig      -0.352000
     23 C_0m         40.8053   16.5939   14.0882 cr      1  lig       0.017900
     24 C_0n         40.2683   17.2823   12.8312 cs      1  lig       0.877700
     25 O_0o         40.8644   17.0551   11.7554 o4      1  lig      -0.839400
     26 O_0p         39.2662   18.0188   12.9662 o5      1  lig      -0.839500
     27 C_0q         41.8775   13.6145   14.7795 ct      1  lig      -0.033200
     28 Br0r         40.7166   12.9520   13.4196 a0      1  lig      -0.101900
     29 C_0s         40.7764   10.9164   15.9496 cw      1  lig      -0.072100
     30 C_0t         39.6099    7.4194   14.0884 cA      1  lig      -0.150300
     31 C_0u         39.2402    6.0199   13.5606 cB      1  lig       0.008400
     32 H_0v         35.2034    4.9236   11.3366 h6      1  lig       0.037500
     33 H_0w         35.2500    4.5439   13.0560 h7      1  lig       0.037500
     34 H_0x         35.0608    6.2251   12.5156 h8      1  lig       0.037500
     35 H_0y         35.9326    6.0668   14.7205 h9      1  lig       0.035900
     36 H_0z         37.3194    5.3852   15.5226 hb      1  lig       0.035900
     37 H_10         36.9559    8.3025   14.6823 hd      1  lig       0.080500
     38 H_11         36.9346    7.6919   16.3159 he      1  lig       0.080500
     39 H_12         38.3890    9.7609   15.8895 hf      1  lig       0.346700
     40 H_13         41.3037    7.6885   16.8710 hg      1  lig       0.080300
     41 H_14         43.5109    8.5989   17.3609 hh      1  lig       0.150800
     42 H_15         44.0390   10.9524   16.8549 hi      1  lig       0.110100
     43 H_16         40.0208   15.9856   14.5418 hj      1  lig       0.043700
     44 H_17         41.0679   17.3551   14.8233 hk      1  lig       0.043700
     45 H_18         39.9928   11.5836   15.6204 hl      1  lig       0.114600
     46 H_19         39.3376    8.1595   13.3359 hm      1  lig       0.084300
     47 H_1a         40.6918    7.4850   14.2037 hq      1  lig       0.084300
     48 H_1b         39.7045    5.2681   14.1988 hr      1  lig       0.051200
     49 H_1c         39.6700    5.8781   12.5690 ht      1  lig       0.051200
@<TRIPOS>BOND
     1     1     2    1
     2     2     9    1
     3     2    30    1
     4     3     4    1
     5     3    32    1
     6     3    33    1
     7     3    34    1
     8     4     5    2
     9     4     6    1
    10     6     7    1
    11     6    31    1
    12     7     8    1
    13     7    35    1
    14     7    36    1
    15     2     8    1
    16     8    37    1
    17     8    38    1
    18     9    10    1
    19     9    39    1
    20    10    11    2
    21    10    29    1
    22    11    12    1
    23    11    40    1
    24    12    13    2
    25    12    41    1
    26    13    14    1
    27    13    42    1
    28    14    15    1
    29    14    29    2
    30    15    16    1
    31    15    27    2
    32    16    17    1
    33    17    18    1
    34    17    21    2
    35    18    19    2
    36    18    20    1
    37    21    22    1
    38    21    27    1
    39    22    23    1
    40    23    24    1
    41    23    43    1
    42    23    44    1
    43    24    25    2
    44    24    26    1
    45    27    28    1
    46    29    45    1
    47    30    31    1
    48    30    46    1
    49    30    47    1
    50    31    48    1
    51    31    49    1
