@<TRIPOS>MOLECULE
lig
  50   52 0 0 0
SMALL
NO_CHARGES


@<TRIPOS>ATOM
      1 H_00         39.2589    7.4190   16.4635 h0      1  lig       0.075000
      2 C_01         38.8757    8.0634   15.6723 c4      1  lig       0.165500
      3 C_02         37.0780    3.6786   13.1303 c5      1  lig      -0.061300
      4 S_03         37.0507    5.4588   12.6717 s0      1  lig       0.955100
      5 O_04         35.6546    5.9158   12.6058 o0      1  lig      -0.550900
      6 O_05         37.9320    5.6292   11.5065 o1      1  lig      -0.545600
      7 N_06         37.7104    6.1236   13.8434 n0      1  lig      -0.321100
      8 C_07         36.9746    6.4537   15.0726 c6      1  lig       0.030700
      9 C_08         37.3499    7.8627   15.5714 c7      1  lig      -0.111500
     10 N_09         39.1733    9.4611   16.0229 ng      1  lig      -0.774600
     11 C_0a         40.4943    9.8795   16.2662 c8      1  lig       0.153600
     12 C_0b         41.4767    9.0403   16.8075 c9      1  lig      -0.164200
     13 C_0c         42.7730    9.5138   17.0059 cb      1  lig      -0.273700
     14 C_0d         43.0991   10.8232   16.6550 ci      1  lig      -0.022300
     15 C_0e         42.1345   11.6814   16.1187 cj      1  lig      -0.042100
     16 C_0f         42.4736   13.0428   15.7309 ck      1  lig      -0.042500
     17 S_0g         43.4983   14.0501   16.7177 s1      1  lig      -0.141200
     18 C_0h         43.3217   15.4163   15.6304 cm      1  lig      -0.024400
     19 C_0i         44.0475   16.6549   16.0000 cn      1  lig       0.729800
     20 O_0j         44.7297   16.6609   17.0479 o2      1  lig      -0.730900
     21 O_0k         43.9566   17.6625   15.2632 o3      1  lig      -0.730900
     22 C_0l         42.5067   15.0961   14.5535 co      1  lig       0.197700
     23 O_0m         42.1804   15.9554   13.5598 o4      1  lig      -0.352900
     24 C_0n         40.9447   16.6448   13.7339 cq      1  lig      -0.002700
     25 C_0o         40.4718   17.2776   12.4231 cr      1  lig       0.876700
     26 O_0p         39.2380   17.3278   12.2242 o5      1  lig      -0.837100
     27 O_0q         41.3522   17.7070   11.6450 o6      1  lig      -0.837200
     28 C_0r         42.1050   13.7638   14.6029 cs      1  lig      -0.041000
     29 Br0s         41.1293   12.9991   13.1540 a0      1  lig      -0.088200
     30 C_0t         40.8302   11.1974   15.9487 ct      1  lig      -0.022000
     31 C_0u         39.5890    7.6410   14.3716 cw      1  lig      -0.222200
     32 C_0v         39.1749    6.2318   13.9220 cA      1  lig       0.082800
     33 H_0w         36.4460    3.5062   13.9999 h6      1  lig       0.046300
     34 H_0x         36.7015    3.0894   12.2947 h7      1  lig       0.046300
     35 H_0y         38.1011    3.3773   13.3530 h8      1  lig       0.046300
     36 H_0z         35.9104    6.3727   14.8514 h9      1  lig       0.039900
     37 H_10         37.1777    5.7010   15.8344 hb      1  lig       0.039900
     38 H_11         36.9229    8.6168   14.9102 hd      1  lig       0.073700
     39 H_12         36.8994    8.0309   16.5496 he      1  lig       0.073700
     40 H_13         38.3818   10.0875   16.0647 hf      1  lig       0.383900
     41 H_14         41.2695    8.0208   17.0833 hg      1  lig       0.148300
     42 H_15         43.5238    8.8638   17.4304 hh      1  lig       0.147600
     43 H_16         44.1117   11.1724   16.7954 hi      1  lig       0.111500
     44 H_17         40.1664   15.9916   14.1324 hj      1  lig       0.051600
     45 H_18         41.0935   17.4322   14.4731 hk      1  lig       0.051600
     46 H_19         40.0667   11.8609   15.5685 hl      1  lig       0.097200
     47 H_1a         39.3781    8.3587   13.5789 hm      1  lig       0.098100
     48 H_1b         40.6684    7.6671   14.5215 hq      1  lig       0.098100
     49 H_1c         39.5623    5.4723   14.6010 hr      1  lig       0.059800
     50 H_1d         39.5768    5.9846   12.9394 ht      1  lig       0.059800
@<TRIPOS>BOND
     1     1     2    1
     2     2    10    1
     3     2    31    1
     4     3     4    1
     5     3    33    1
     6     3    34    1
     7     3    35    1
     8     4     5    2
     9     4     6    2
    10     4     7    1
    11     7     8    1
    12     7    32    1
    13     8     9    1
    14     8    36    1
    15     8    37    1
    16     2     9    1
    17     9    38    1
    18     9    39    1
    19    10    11    1
    20    10    40    1
    21    11    12    2
    22    11    30    1
    23    12    13    1
    24    12    41    1
    25    13    14    2
    26    13    42    1
    27    14    15    1
    28    14    43    1
    29    15    16    1
    30    15    30    2
    31    16    17    1
    32    16    28    2
    33    17    18    1
    34    18    19    1
    35    18    22    2
    36    19    20    2
    37    19    21    1
    38    22    23    1
    39    22    28    1
    40    23    24    1
    41    24    25    1
    42    24    44    1
    43    24    45    1
    44    25    26    2
    45    25    27    1
    46    28    29    1
    47    30    46    1
    48    31    32    1
    49    31    47    1
    50    31    48    1
    51    32    49    1
    52    32    50    1
