@<TRIPOS>MOLECULE
lig
  63   66 0 0 0
SMALL
NO_CHARGES


@<TRIPOS>ATOM
      1 C_00         41.3040   13.2036   13.4628 c4      1  lig      -0.100000
      2 C_01         42.1050   13.7638   14.6029 c5      1  lig       0.112900
      3 C_02         42.5067   15.0961   14.5535 c6      1  lig       0.091900
      4 O_03         42.1497   15.9428   13.5632 o0      1  lig      -0.359800
      5 C_04         41.1085   16.8483   13.9109 c7      1  lig       0.168100
      6 C_05         40.5926   17.5867   12.6738 c8      1  lig       0.813700
      7 O_06         41.2437   17.4781   11.6105 o1      1  lig      -0.811500
      8 O_07         39.5308   18.2342   12.8065 o2      1  lig      -0.811500
      9 C_08         43.3217   15.4163   15.6304 c9      1  lig      -0.027500
     10 C_09         44.0363   16.6612   16.0003 cb      1  lig       0.787800
     11 O_0a         44.7190   16.6734   17.0477 o3      1  lig      -0.766800
     12 O_0b         43.9409   17.6673   15.2623 o4      1  lig      -0.766900
     13 S_0c         43.4983   14.0501   16.7177 s0      1  lig      -0.183000
     14 C_0d         42.4736   13.0428   15.7309 ci      1  lig      -0.218900
     15 C_0e         42.1345   11.6814   16.1187 cj      1  lig       0.080700
     16 C_0f         43.0991   10.8232   16.6550 ck      1  lig      -0.026600
     17 C_0g         42.7730    9.5138   17.0059 cm      1  lig      -0.300300
     18 C_0h         41.4767    9.0403   16.8075 cn      1  lig      -0.165700
     19 C_0i         40.4943    9.8795   16.2662 co      1  lig       0.118700
     20 N_0j         39.1733    9.4611   16.0229 n0      1  lig      -0.754500
     21 C_0k         38.8803    8.0706   15.6816 cq      1  lig       0.195400
     22 C_0l         37.3499    7.8627   15.5714 cr      1  lig      -0.124300
     23 C_0m         36.9746    6.4537   15.0726 cs      1  lig       0.059200
     24 N_0n         37.7104    6.1236   13.8434 ng      1  lig      -0.331800
     25 S_0o         36.9761    5.2050   12.5892 s1      1  lig       0.973700
     26 O_0p         37.8364    5.3259   11.4042 o5      1  lig      -0.537700
     27 O_0q         35.5548    5.5863   12.5166 o6      1  lig      -0.548400
     28 C_0r         37.1037    3.4728   13.2183 ct      1  lig      -0.025600
     29 C_0s         36.7137    2.5266   12.0998 cw      1  lig      -0.008400
     30 C_0t         35.3715    2.1867   11.9063 cA      1  lig      -0.115300
     31 C_0u         35.0075    1.3509   10.8514 cB      1  lig      -0.165400
     32 C_0v         35.9839    0.8540    9.9894 cC      1  lig      -0.113700
     33 C_0w         37.3260    1.1810   10.1830 cD      1  lig      -0.167600
     34 C_0x         37.6914    2.0147   11.2396 cE      1  lig      -0.103900
     35 C_0y         39.1749    6.2318   13.9220 cF      1  lig       0.029100
     36 C_0z         39.5890    7.6410   14.3716 cG      1  lig      -0.263700
     37 C_10         40.8302   11.1974   15.9487 cH      1  lig      -0.029100
     38 H_11         40.7756   13.9858   12.9180 h0      1  lig       0.016200
     39 H_12         41.9462   12.6879   12.7491 h6      1  lig       0.016200
     40 H_13         40.5530   12.4943   13.8108 h7      1  lig       0.016200
     41 H_14         40.2650   16.3316   14.3730 h8      1  lig       0.009300
     42 H_15         41.4848   17.5702   14.6364 h9      1  lig       0.009300
     43 H_16         44.1102   11.1712   16.8072 hb      1  lig       0.097800
     44 H_17         43.5249    8.8662   17.4322 hd      1  lig       0.150500
     45 H_18         41.2420    8.0208   17.0774 he      1  lig       0.141200
     46 H_19         38.4546   10.1706   16.0360 hf      1  lig       0.370500
     47 H_1a         39.2589    7.4686   16.5076 hg      1  lig       0.061300
     48 H_1b         36.8766    8.0462   16.5360 hh      1  lig       0.072100
     49 H_1c         36.9348    8.6028   14.8873 hi      1  lig       0.072100
     50 H_1d         37.2043    5.6975   15.8233 hj      1  lig       0.040600
     51 H_1e         35.9002    6.3859   14.9017 hk      1  lig       0.040600
     52 H_1f         38.1418    3.3069   13.5060 hl      1  lig       0.039200
     53 H_1g         36.4999    3.3814   14.1208 hm      1  lig       0.039200
     54 H_1h         34.6108    2.5601   12.5771 hq      1  lig       0.132600
     55 H_1i         33.9697    1.0902   10.7043 hr      1  lig       0.134100
     56 H_1j         35.7021    0.2157    9.1651 ht      1  lig       0.124700
     57 H_1k         38.0787    0.7895    9.5148 hu      1  lig       0.139200
     58 H_1l         38.7326    2.2586   11.3919 hv      1  lig       0.140700
     59 H_1m         39.5253    5.4655   14.6134 hy      1  lig       0.064900
     60 H_1n         39.6129    5.9826   12.9555 hz      1  lig       0.064900
     61 H_1o         39.3499    8.3541   13.5828 hA      1  lig       0.138400
     62 H_1p         40.6706    7.6852   14.4991 hB      1  lig       0.138400
     63 H_1q         40.0952   11.8772   15.5562 hC      1  lig       0.126500
@<TRIPOS>BOND
     1     1     2    1
     2     1    38    1
     3     1    39    1
     4     1    40    1
     5     2    14    2
     6     2     3    1
     7     3     4    1
     8     3     9    2
     9     4     5    1
    10     5     6    1
    11     5    41    1
    12     5    42    1
    13     6     7    2
    14     6     8    1
    15     9    10    1
    16     9    13    1
    17    10    11    2
    18    10    12    1
    19    13    14    1
    20    14    15    1
    21    15    37    1
    22    15    16    2
    23    16    17    1
    24    16    43    1
    25    17    18    2
    26    17    44    1
    27    18    19    1
    28    18    45    1
    29    19    20    1
    30    19    37    2
    31    20    21    1
    32    20    46    1
    33    21    36    1
    34    21    22    1
    35    21    47    1
    36    22    23    1
    37    22    48    1
    38    22    49    1
    39    23    24    1
    40    23    50    1
    41    23    51    1
    42    24    25    1
    43    24    35    1
    44    25    26    2
    45    25    27    2
    46    25    28    1
    47    28    29    1
    48    28    52    1
    49    28    53    1
    50    29    34    1
    51    29    30    2
    52    30    31    1
    53    30    54    1
    54    31    32    2
    55    31    55    1
    56    32    33    1
    57    32    56    1
    58    33    34    2
    59    33    57    1
    60    34    58    1
    61    35    36    1
    62    35    59    1
    63    35    60    1
    64    36    61    1
    65    36    62    1
    66    37    63    1
