@<TRIPOS>MOLECULE
lig
  57   60 0 0 0
SMALL
NO_CHARGES


@<TRIPOS>ATOM
      1 O_00         41.5076   17.6533   11.6485 o0      1  lig      -0.840200
      2 C_01         40.5987   17.4811   12.4903 c4      1  lig       0.881200
      3 O_02         39.4797   18.0394   12.4716 o1      1  lig      -0.840200
      4 C_03         40.8849   16.5382   13.6616 c5      1  lig       0.021900
      5 O_04         42.1831   15.9568   13.5607 o2      1  lig      -0.352400
      6 C_05         42.5067   15.0961   14.5535 c6      1  lig       0.171800
      7 C_06         42.1050   13.7638   14.6029 c7      1  lig      -0.008700
      8 Br07         41.1305   12.9484   13.1815 a0      1  lig      -0.099400
      9 C_08         42.4736   13.0428   15.7309 c8      1  lig      -0.049200
     10 C_09         42.1345   11.6814   16.1187 c9      1  lig      -0.029800
     11 C_0a         43.0991   10.8232   16.6550 cb      1  lig      -0.023400
     12 C_0b         42.7730    9.5138   17.0059 ci      1  lig      -0.279400
     13 C_0c         41.4767    9.0403   16.8075 cj      1  lig      -0.128000
     14 C_0d         40.4943    9.8795   16.2662 ck      1  lig       0.135300
     15 N_0e         39.1733    9.4611   16.0229 n0      1  lig      -0.775200
     16 C_0f         38.8803    8.0706   15.6816 cm      1  lig       0.311200
     17 C_0g         37.3499    7.8627   15.5714 cn      1  lig      -0.204700
     18 C_0h         36.9746    6.4537   15.0726 co      1  lig       0.025500
     19 N_0i         37.7104    6.1236   13.8434 ng      1  lig      -0.236500
     20 S_0j         36.9907    5.9581   12.5378 s0      1  lig       0.791000
     21 O_0k         35.7144    6.6849   12.6224 o3      1  lig      -0.502700
     22 O_0l         37.9478    6.2523   11.4601 o4      1  lig      -0.508700
     23 C_0m         36.6716    4.1994   12.4996 cq      1  lig       0.039900
     24 C_0n         37.7586    3.3029   12.4915 cr      1  lig      -0.087500
     25 C_0o         37.5162    1.9153   12.4802 cs      1  lig      -0.180800
     26 C_0p         36.1926    1.4309   12.4791 ct      1  lig      -0.109100
     27 C_0q         35.1089    2.3322   12.4905 cw      1  lig      -0.167000
     28 C_0r         35.3462    3.7207   12.5036 cA      1  lig      -0.095000
     29 C_0s         39.1749    6.2318   13.9220 cB      1  lig       0.048300
     30 C_0t         39.5890    7.6410   14.3716 cC      1  lig      -0.190800
     31 C_0u         40.8302   11.1974   15.9487 cD      1  lig      -0.065600
     32 S_0v         43.4983   14.0501   16.7177 s1      1  lig      -0.151400
     33 C_0w         43.3217   15.4163   15.6304 cE      1  lig      -0.013000
     34 C_0x         44.0454   16.6569   15.9983 cF      1  lig       0.733700
     35 O_0y         44.7330   16.6641   17.0426 o5      1  lig      -0.732500
     36 O_0z         43.9488   17.6647   15.2624 o6      1  lig      -0.732600
     37 H_10         40.0978   15.7842   13.7296 h0      1  lig       0.042700
     38 H_11         40.8414   17.1162   14.5847 h6      1  lig       0.042700
     39 H_12         44.1129   11.1673   16.7997 h7      1  lig       0.110800
     40 H_13         43.5255    8.8665   17.4316 h8      1  lig       0.147900
     41 H_14         41.2413    8.0207   17.0763 h9      1  lig       0.123400
     42 H_15         38.4390   10.1449   16.1373 hb      1  lig       0.370900
     43 H_16         39.2589    7.4686   16.5076 hd      1  lig       0.040600
     44 H_17         36.8766    8.0462   16.5360 he      1  lig       0.101600
     45 H_18         36.9348    8.6028   14.8873 hf      1  lig       0.101600
     46 H_19         37.2043    5.6975   15.8233 hg      1  lig       0.050700
     47 H_1a         35.9002    6.3859   14.9017 hh      1  lig       0.050700
     48 H_1b         38.7715    3.6780   12.4933 hi      1  lig       0.133900
     49 H_1c         38.3450    1.2228   12.4717 hj      1  lig       0.145800
     50 H_1d         36.0080    0.3668   12.4686 hk      1  lig       0.138400
     51 H_1e         34.0953    1.9593   12.4874 hl      1  lig       0.147400
     52 H_1f         34.5143    4.4097   12.5081 hm      1  lig       0.147300
     53 H_1g         39.5253    5.4655   14.6134 hq      1  lig       0.038800
     54 H_1h         39.6129    5.9826   12.9555 hr      1  lig       0.038800
     55 H_1i         39.3499    8.3541   13.5828 ht      1  lig       0.085100
     56 H_1j         40.6706    7.6852   14.4991 hu      1  lig       0.085100
     57 H_1k         40.0962   11.8860   15.5702 hv      1  lig       0.099800
@<TRIPOS>BOND
     1     1     2    2
     2     2     3    1
     3     2     4    1
     4     4     5    1
     5     4    37    1
     6     4    38    1
     7     5     6    1
     8     6    33    2
     9     6     7    1
    10     7     8    1
    11     7     9    2
    12     9    10    1
    13     9    32    1
    14    10    31    1
    15    10    11    2
    16    11    12    1
    17    11    39    1
    18    12    13    2
    19    12    40    1
    20    13    14    1
    21    13    41    1
    22    14    15    1
    23    14    31    2
    24    15    16    1
    25    15    42    1
    26    16    30    1
    27    16    17    1
    28    16    43    1
    29    17    18    1
    30    17    44    1
    31    17    45    1
    32    18    19    1
    33    18    46    1
    34    18    47    1
    35    19    20    1
    36    19    29    1
    37    20    21    2
    38    20    22    2
    39    20    23    1
    40    23    28    1
    41    23    24    2
    42    24    25    1
    43    24    48    1
    44    25    26    2
    45    25    49    1
    46    26    27    1
    47    26    50    1
    48    27    28    2
    49    27    51    1
    50    28    52    1
    51    29    30    1
    52    29    53    1
    53    29    54    1
    54    30    55    1
    55    30    56    1
    56    31    57    1
    57    32    33    1
    58    33    34    1
    59    34    35    2
    60    34    36    1
