@<TRIPOS>MOLECULE
lig
  60   63 0 0 0
SMALL
NO_CHARGES


@<TRIPOS>ATOM
      1 O_00         41.3719   17.7859   11.8178 o0      1  lig      -0.848900
      2 C_01         40.5610   17.6340   12.7587 c4      1  lig       0.897000
      3 O_02         39.4799   18.2504   12.8841 o1      1  lig      -0.849000
      4 C_03         40.9135   16.6417   13.8689 c5      1  lig       0.014800
      5 O_04         42.1428   15.9801   13.5995 o2      1  lig      -0.346500
      6 C_05         42.5067   15.0961   14.5535 c6      1  lig       0.148400
      7 C_06         42.1050   13.7638   14.6029 c7      1  lig       0.057100
      8 Cl07         41.1936   13.1078   13.3221 a0      1  lig      -0.132000
      9 C_08         42.4736   13.0428   15.7309 c8      1  lig      -0.084500
     10 C_09         42.1345   11.6814   16.1187 c9      1  lig      -0.017200
     11 C_0a         43.0991   10.8232   16.6550 cb      1  lig      -0.014000
     12 C_0b         42.7730    9.5138   17.0059 ci      1  lig      -0.282400
     13 C_0c         41.4767    9.0403   16.8075 cj      1  lig      -0.155600
     14 C_0d         40.4943    9.8795   16.2662 ck      1  lig       0.176900
     15 N_0e         39.1733    9.4611   16.0229 n0      1  lig      -0.782200
     16 C_0f         38.8803    8.0706   15.6816 cm      1  lig       0.271200
     17 C_0g         37.3499    7.8627   15.5714 cn      1  lig      -0.183800
     18 C_0h         36.9746    6.4537   15.0726 co      1  lig       0.023900
     19 N_0i         37.7104    6.1236   13.8434 ng      1  lig      -0.313100
     20 S_0j         36.9761    5.2050   12.5892 s0      1  lig       0.960600
     21 O_0k         37.8364    5.3259   11.4042 o3      1  lig      -0.546700
     22 O_0l         35.5548    5.5863   12.5166 o4      1  lig      -0.538800
     23 C_0m         37.1037    3.4728   13.2183 cq      1  lig      -0.013500
     24 C_0n         36.7137    2.5266   12.0998 cr      1  lig      -0.008600
     25 C_0o         35.3715    2.1867   11.9063 cs      1  lig      -0.117200
     26 C_0p         35.0075    1.3509   10.8514 ct      1  lig      -0.151600
     27 C_0q         35.9839    0.8540    9.9894 cw      1  lig      -0.120700
     28 C_0r         37.3260    1.1810   10.1830 cA      1  lig      -0.171400
     29 C_0s         37.6914    2.0147   11.2396 cB      1  lig      -0.103900
     30 C_0t         39.1749    6.2318   13.9220 cC      1  lig       0.035000
     31 C_0u         39.5890    7.6410   14.3716 cD      1  lig      -0.154800
     32 C_0v         40.8302   11.1974   15.9487 cE      1  lig      -0.080400
     33 S_0w         43.4983   14.0501   16.7177 s1      1  lig      -0.154000
     34 C_0x         43.3217   15.4163   15.6304 cF      1  lig      -0.007500
     35 C_0y         44.0366   16.6604   15.9998 cG      1  lig       0.720300
     36 O_0z         44.7231   16.6703   17.0446 o5      1  lig      -0.725400
     37 O_10         43.9382   17.6666   15.2618 o6      1  lig      -0.725500
     38 H_11         40.1097   15.9098   13.9588 h0      1  lig       0.044000
     39 H_12         40.9711   17.1834   14.8146 h6      1  lig       0.044000
     40 H_13         44.1107   11.1702   16.8078 h7      1  lig       0.109200
     41 H_14         43.5251    8.8657   17.4310 h8      1  lig       0.149800
     42 H_15         41.2433    8.0195   17.0736 h9      1  lig       0.133500
     43 H_16         38.4432   10.1496   16.1366 hb      1  lig       0.376500
     44 H_17         39.2589    7.4686   16.5076 hd      1  lig       0.042900
     45 H_18         36.8766    8.0462   16.5360 he      1  lig       0.093900
     46 H_19         36.9348    8.6028   14.8873 hf      1  lig       0.093900
     47 H_1a         37.2043    5.6975   15.8233 hg      1  lig       0.062800
     48 H_1b         35.9002    6.3859   14.9017 hh      1  lig       0.062800
     49 H_1c         38.1412    3.3049   13.5075 hi      1  lig       0.036000
     50 H_1d         36.4977    3.3763   14.1188 hj      1  lig       0.036000
     51 H_1e         34.6147    2.5649   12.5777 hk      1  lig       0.141800
     52 H_1f         33.9702    1.0888   10.7035 hl      1  lig       0.136300
     53 H_1g         35.7015    0.2167    9.1646 hm      1  lig       0.129000
     54 H_1h         38.0784    0.7898    9.5143 hq      1  lig       0.138000
     55 H_1i         38.7325    2.2599   11.3891 hr      1  lig       0.130700
     56 H_1j         39.5253    5.4655   14.6134 ht      1  lig       0.049000
     57 H_1k         39.6129    5.9826   12.9555 hu      1  lig       0.049000
     58 H_1l         39.3499    8.3541   13.5828 hv      1  lig       0.077400
     59 H_1m         40.6706    7.6852   14.4991 hy      1  lig       0.077400
     60 H_1n         40.0961   11.8770   15.5523 hz      1  lig       0.110100
@<TRIPOS>BOND
     1     1     2    2
     2     2     3    1
     3     2     4    1
     4     4     5    1
     5     4    38    1
     6     4    39    1
     7     5     6    1
     8     6    34    2
     9     6     7    1
    10     7     8    1
    11     7     9    2
    12     9    10    1
    13     9    33    1
    14    10    32    1
    15    10    11    2
    16    11    12    1
    17    11    40    1
    18    12    13    2
    19    12    41    1
    20    13    14    1
    21    13    42    1
    22    14    15    1
    23    14    32    2
    24    15    16    1
    25    15    43    1
    26    16    31    1
    27    16    17    1
    28    16    44    1
    29    17    18    1
    30    17    45    1
    31    17    46    1
    32    18    19    1
    33    18    47    1
    34    18    48    1
    35    19    20    1
    36    19    30    1
    37    20    21    2
    38    20    22    2
    39    20    23    1
    40    23    24    1
    41    23    49    1
    42    23    50    1
    43    24    29    1
    44    24    25    2
    45    25    26    1
    46    25    51    1
    47    26    27    2
    48    26    52    1
    49    27    28    1
    50    27    53    1
    51    28    29    2
    52    28    54    1
    53    29    55    1
    54    30    31    1
    55    30    56    1
    56    30    57    1
    57    31    58    1
    58    31    59    1
    59    32    60    1
    60    33    34    1
    61    34    35    1
    62    35    36    2
    63    35    37    1
