@<TRIPOS>MOLECULE
lig
  60   63 0 0 0
SMALL
NO_CHARGES


@<TRIPOS>ATOM
      1 O_00         39.4259   18.2063   12.7913 o0      1  lig      -0.836600
      2 C_01         40.5386   17.6364   12.7356 c4      1  lig       0.858200
      3 O_02         41.3997   17.8212   11.8476 o1      1  lig      -0.836700
      4 C_03         40.8943   16.6402   13.8461 c5      1  lig       0.048400
      5 O_04         42.1348   15.9824   13.6021 o2      1  lig      -0.384600
      6 C_05         42.5067   15.0961   14.5535 c6      1  lig       0.130300
      7 C_06         42.1050   13.7638   14.6029 c7      1  lig      -0.084600
      8 C_07         42.4736   13.0428   15.7309 c8      1  lig      -0.145100
      9 C_08         42.1345   11.6814   16.1187 c9      1  lig       0.021100
     10 C_09         43.0991   10.8232   16.6550 cb      1  lig      -0.051800
     11 C_0a         42.7730    9.5138   17.0059 ci      1  lig      -0.282300
     12 C_0b         41.4767    9.0403   16.8075 cj      1  lig      -0.173700
     13 C_0c         40.4943    9.8795   16.2662 ck      1  lig       0.148900
     14 N_0d         39.1733    9.4611   16.0229 n0      1  lig      -0.759900
     15 C_0e         38.8803    8.0706   15.6816 cm      1  lig       0.164700
     16 C_0f         37.3499    7.8627   15.5714 cn      1  lig      -0.125300
     17 C_0g         36.9746    6.4537   15.0726 co      1  lig       0.060600
     18 N_0h         37.7104    6.1236   13.8434 ng      1  lig      -0.340600
     19 S_0i         36.9761    5.2050   12.5892 s0      1  lig       0.968000
     20 O_0j         37.8364    5.3259   11.4042 o3      1  lig      -0.535800
     21 O_0k         35.5548    5.5863   12.5166 o4      1  lig      -0.545700
     22 C_0l         37.1037    3.4728   13.2183 cq      1  lig      -0.032700
     23 C_0m         36.7137    2.5266   12.0998 cr      1  lig      -0.009600
     24 C_0n         35.3715    2.1867   11.9063 cs      1  lig      -0.112000
     25 C_0o         35.0075    1.3509   10.8514 ct      1  lig      -0.167300
     26 C_0p         35.9839    0.8540    9.9894 cw      1  lig      -0.115000
     27 C_0q         37.3260    1.1810   10.1830 cA      1  lig      -0.162100
     28 C_0r         37.6914    2.0147   11.2396 cB      1  lig      -0.096700
     29 C_0s         39.1749    6.2318   13.9220 cC      1  lig       0.055300
     30 C_0t         39.5890    7.6410   14.3716 cD      1  lig      -0.189600
     31 C_0u         40.8302   11.1974   15.9487 cE      1  lig      -0.039300
     32 S_0v         43.4983   14.0501   16.7177 s1      1  lig      -0.183600
     33 C_0w         43.3217   15.4163   15.6304 cF      1  lig       0.000400
     34 C_0x         44.0369   16.6621   15.9952 cG      1  lig       0.775200
     35 O_0y         44.7246   16.6743   17.0397 o5      1  lig      -0.764300
     36 O_0z         43.9393   17.6669   15.2557 o6      1  lig      -0.764300
     37 H_10         40.1114   15.8832   13.8904 h0      1  lig       0.042800
     38 H_11         40.8959   17.1443   14.8148 h6      1  lig       0.042800
     39 H_12         41.5362   13.3167   13.8010 h7      1  lig       0.151400
     40 H_13         44.1102   11.1702   16.8114 h8      1  lig       0.118800
     41 H_14         43.5245    8.8663   17.4330 h9      1  lig       0.144700
     42 H_15         41.2435    8.0196   17.0741 hb      1  lig       0.138900
     43 H_16         38.4495   10.1616   16.0962 hd      1  lig       0.375600
     44 H_17         39.2589    7.4686   16.5076 he      1  lig       0.067500
     45 H_18         36.8766    8.0462   16.5360 hf      1  lig       0.074100
     46 H_19         36.9348    8.6028   14.8873 hg      1  lig       0.074100
     47 H_1a         37.2043    5.6975   15.8233 hh      1  lig       0.038700
     48 H_1b         35.9002    6.3859   14.9017 hi      1  lig       0.038700
     49 H_1c         38.1417    3.3051   13.5054 hj      1  lig       0.040500
     50 H_1d         36.4997    3.3778   14.1203 hk      1  lig       0.040500
     51 H_1e         34.6122    2.5581   12.5796 hl      1  lig       0.131800
     52 H_1f         33.9695    1.0894   10.7059 hm      1  lig       0.133000
     53 H_1g         35.7021    0.2151    9.1655 hq      1  lig       0.123500
     54 H_1h         38.0786    0.7889    9.5150 hr      1  lig       0.135000
     55 H_1i         38.7325    2.2595   11.3901 ht      1  lig       0.137600
     56 H_1j         39.5253    5.4655   14.6134 hu      1  lig       0.057800
     57 H_1k         39.6129    5.9826   12.9555 hv      1  lig       0.057800
     58 H_1l         39.3499    8.3541   13.5828 hy      1  lig       0.111700
     59 H_1m         40.6706    7.6852   14.4991 hz      1  lig       0.111700
     60 H_1n         40.0876   11.8684   15.5552 hA      1  lig       0.119100
@<TRIPOS>BOND
     1     1     2    2
     2     2     3    1
     3     2     4    1
     4     4     5    1
     5     4    37    1
     6     4    38    1
     7     5     6    1
     8     6    33    2
     9     6     7    1
    10     7     8    2
    11     7    39    1
    12     8     9    1
    13     8    32    1
    14     9    31    1
    15     9    10    2
    16    10    11    1
    17    10    40    1
    18    11    12    2
    19    11    41    1
    20    12    13    1
    21    12    42    1
    22    13    14    1
    23    13    31    2
    24    14    15    1
    25    14    43    1
    26    15    30    1
    27    15    16    1
    28    15    44    1
    29    16    17    1
    30    16    45    1
    31    16    46    1
    32    17    18    1
    33    17    47    1
    34    17    48    1
    35    18    19    1
    36    18    29    1
    37    19    20    2
    38    19    21    2
    39    19    22    1
    40    22    23    1
    41    22    49    1
    42    22    50    1
    43    23    28    1
    44    23    24    2
    45    24    25    1
    46    24    51    1
    47    25    26    2
    48    25    52    1
    49    26    27    1
    50    26    53    1
    51    27    28    2
    52    27    54    1
    53    28    55    1
    54    29    30    1
    55    29    56    1
    56    29    57    1
    57    30    58    1
    58    30    59    1
    59    31    60    1
    60    32    33    1
    61    33    34    1
    62    34    35    2
    63    34    36    1
