@<TRIPOS>MOLECULE
lig
  50   52 0 0 0
SMALL
NO_CHARGES


@<TRIPOS>ATOM
      1 H_00         39.3159    7.0723   16.1634 h0      1  lig       0.079200
      2 C_01         38.9076    7.7568   15.4198 c4      1  lig       0.153900
      3 C_02         34.9009    4.9769   11.4174 c5      1  lig      -0.060000
      4 O_03         35.7432    5.3667   12.4886 o0      1  lig      -0.323800
      5 C_04         37.0750    5.4456   12.2999 c6      1  lig       0.782000
      6 O_05         37.6240    5.2031   11.2233 o1      1  lig      -0.623900
      7 N_06         37.7153    5.8364   13.4582 n0      1  lig      -0.319700
      8 C_07         37.0173    6.1412   14.7978 c7      1  lig      -0.003200
      9 C_08         37.3829    7.5402   15.3340 c8      1  lig      -0.038300
     10 N_09         39.1835    9.1385   15.8446 ng      1  lig      -0.753500
     11 C_0a         40.4829    9.5699   16.1594 c9      1  lig       0.147800
     12 C_0b         41.4815    8.7321   16.6725 cb      1  lig      -0.127000
     13 C_0c         42.7506    9.2417   16.9424 ci      1  lig      -0.288200
     14 C_0d         43.0417   10.5800   16.6715 cj      1  lig      -0.028500
     15 C_0e         42.0577   11.4350   16.1601 ck      1  lig      -0.031200
     16 C_0f         42.3473   12.8247   15.8292 cm      1  lig      -0.058600
     17 S_0g         43.4366   13.7822   16.8006 s0      1  lig      -0.139200
     18 C_0h         43.2082   15.1991   15.7938 cn      1  lig      -0.024100
     19 C_0i         43.9488   16.4202   16.1914 co      1  lig       0.735500
     20 O_0j         44.6955   16.3700   17.1931 o2      1  lig      -0.732800
     21 O_0k         43.8161   17.4656   15.5160 o3      1  lig      -0.732800
     22 C_0l         42.3248   14.9326   14.7526 cq      1  lig       0.175100
     23 O_0m         41.9117   15.8500   13.8469 o4      1  lig      -0.347200
     24 C_0n         40.9786   16.8101   14.3368 cr      1  lig       0.004600
     25 C_0o         40.2316   17.4946   13.1897 cs      1  lig       0.879500
     26 O_0p         40.8772   17.7240   12.1431 o5      1  lig      -0.839200
     27 O_0q         39.0259   17.7704   13.3758 o6      1  lig      -0.839300
     28 C_0r         41.8775   13.6145   14.7795 ct      1  lig      -0.012700
     29 Br0s         40.6623   12.9713   13.4584 a0      1  lig      -0.098900
     30 C_0t         40.7764   10.9164   15.9496 cw      1  lig      -0.037100
     31 C_0u         39.6099    7.4194   14.0884 cA      1  lig      -0.105200
     32 C_0v         39.2402    6.0199   13.5606 cB      1  lig       0.088600
     33 H_0w         33.8622    4.9680   11.7475 h6      1  lig       0.082400
     34 H_0x         34.9868    5.6730   10.5821 h7      1  lig       0.082400
     35 H_0y         35.1554    3.9760   11.0666 h8      1  lig       0.082400
     36 H_0z         35.9326    6.0668   14.7205 h9      1  lig       0.022700
     37 H_10         37.3194    5.3852   15.5226 hb      1  lig       0.022700
     38 H_11         36.9559    8.3026   14.6823 hd      1  lig       0.045100
     39 H_12         36.9346    7.6919   16.3159 he      1  lig       0.045100
     40 H_13         38.3877    9.7586   15.8969 hf      1  lig       0.370100
     41 H_14         41.3038    7.6884   16.8704 hg      1  lig       0.124400
     42 H_15         43.5100    8.5997   17.3637 hh      1  lig       0.150500
     43 H_16         44.0359   10.9552   16.8655 hi      1  lig       0.111500
     44 H_17         40.2570   16.2936   14.9701 hj      1  lig       0.047800
     45 H_18         41.4591   17.5609   14.9666 hk      1  lig       0.047800
     46 H_19         39.9957   11.5812   15.6086 hl      1  lig       0.096500
     47 H_1a         39.3376    8.1595   13.3359 hm      1  lig       0.055500
     48 H_1b         40.6918    7.4850   14.2037 hq      1  lig       0.055500
     49 H_1c         39.7045    5.2681   14.1988 hr      1  lig       0.037900
     50 H_1d         39.6700    5.8781   12.5690 ht      1  lig       0.037900
@<TRIPOS>BOND
     1     1     2    1
     2     2    10    1
     3     2    31    1
     4     3     4    1
     5     3    33    1
     6     3    34    1
     7     3    35    1
     8     4     5    1
     9     5     6    2
    10     5     7    1
    11     7     8    1
    12     7    32    1
    13     8     9    1
    14     8    36    1
    15     8    37    1
    16     2     9    1
    17     9    38    1
    18     9    39    1
    19    10    11    1
    20    10    40    1
    21    11    12    2
    22    11    30    1
    23    12    13    1
    24    12    41    1
    25    13    14    2
    26    13    42    1
    27    14    15    1
    28    14    43    1
    29    15    16    1
    30    15    30    2
    31    16    17    1
    32    16    28    2
    33    17    18    1
    34    18    19    1
    35    18    22    2
    36    19    20    2
    37    19    21    1
    38    22    23    1
    39    22    28    1
    40    23    24    1
    41    24    25    1
    42    24    44    1
    43    24    45    1
    44    25    26    2
    45    25    27    1
    46    28    29    1
    47    30    46    1
    48    31    32    1
    49    31    47    1
    50    31    48    1
    51    32    49    1
    52    32    50    1
