@<TRIPOS>MOLECULE
lig
  43   46 0 0 0
SMALL
NO_CHARGES


@<TRIPOS>ATOM
      1 O_00          3.9452  -49.5972    7.0411 o0      1  lig      -0.720600
      2 C_01          3.1365  -48.7364    6.6226 c4      1  lig       0.793200
      3 O_02          3.5094  -47.5621    6.3942 o1      1  lig      -0.765600
      4 C_03          1.7049  -49.1070    6.4070 c5      1  lig      -0.018700
      5 S_04          1.3259  -50.7950    6.6839 s0      1  lig      -0.166200
      6 C_05         -0.3704  -50.5332    6.3111 c6      1  lig       0.040100
      7 C_06         -1.4069  -51.4759    6.3365 c7      1  lig      -0.182800
      8 C_07         -2.7213  -51.0964    6.0060 c8      1  lig      -0.189400
      9 C_08         -2.9841  -49.7599    5.6503 c9      1  lig      -0.173200
     10 C_09         -1.9354  -48.8209    5.6277 cb      1  lig      -0.164200
     11 C_0a         -0.6073  -49.1678    5.9622 ci      1  lig       0.069600
     12 C_0b          0.5988  -48.3581    6.0318 cj      1  lig      -0.096000
     13 C_0c          0.5988  -46.8757    5.7329 ck      1  lig       0.089700
     14 C_0d          0.5107  -45.9949    6.9975 cm      1  lig      -0.023900
     15 C_0e         -0.7268  -46.2231    7.8886 cn      1  lig      -0.222300
     16 O_0f         -1.9204  -45.8789    7.1949 o2      1  lig      -0.183600
     17 C_0g         -3.1305  -45.9365    7.8645 co      1  lig       0.069600
     18 C_0h         -5.6581  -45.9747    9.1652 cq      1  lig      -0.251000
     19 C_0i         -4.5054  -46.3958    9.8517 cr      1  lig      -0.200600
     20 C_0j         -3.2501  -46.3737    9.2104 cs      1  lig      -0.145400
     21 H_0k         -1.1976  -52.5010    6.6101 h0      1  lig       0.163300
     22 H_0l         -3.5249  -51.8146    6.0318 h6      1  lig       0.125700
     23 H_0m         -3.9856  -49.4504    5.3944 h7      1  lig       0.126800
     24 H_0n         -2.1614  -47.8019    5.3568 h8      1  lig       0.148400
     25 H_0o         -0.2263  -46.6286    5.0692 h9      1  lig      -0.003900
     26 H_0p          1.5004  -46.6009    5.1714 hb      1  lig      -0.003900
     27 H_0q          0.5403  -44.9448    6.6976 hd      1  lig       0.055200
     28 H_0r          1.4018  -46.1649    7.6017 he      1  lig       0.055200
     29 H_0s         -0.6289  -45.5830    8.7627 hf      1  lig       0.136600
     30 H_0t         -0.7629  -47.2543    8.2399 hg      1  lig       0.136600
     31 H_0u         -2.3982  -46.7023    9.7956 hh      1  lig       0.126600
     32 C_0v         -5.5579  -45.5466    7.8298 ct      1  lig       0.109500
     33 C_0w         -4.3029  -45.5385    7.1795 cw      1  lig       0.121000
     34 C_0x         -4.2262  -45.1320    5.8356 cA      1  lig      -0.198600
     35 C_0y         -5.3873  -44.7274    5.1423 cB      1  lig      -0.140500
     36 C_0z         -6.6341  -44.7213    5.7969 cC      1  lig      -0.162200
     37 C_10         -6.7133  -45.1304    7.1466 cD      1  lig      -0.200800
     38 H_11         -3.2840  -45.1204    5.2971 hi      1  lig       0.142300
     39 H_12         -5.3241  -44.4188    4.1042 hj      1  lig       0.132000
     40 H_13         -7.5218  -44.4074    5.2696 hk      1  lig       0.135700
     41 H_14         -7.6788  -45.1188    7.6403 hl      1  lig       0.133200
     42 H_15         -4.5730  -46.7368   10.8723 hm      1  lig       0.160100
     43 H_16         -6.6110  -45.9950    9.6786 hq      1  lig       0.143000
@<TRIPOS>BOND
     1     1     2    2
     2     2     3    1
     3     2     4    1
     4     4     5    1
     5     4    12    2
     6     5     6    1
     7     6     7    2
     8     6    11    1
     9     7     8    1
    10     7    21    1
    11     8     9    2
    12     8    22    1
    13     9    10    1
    14     9    23    1
    15    10    11    2
    16    10    24    1
    17    11    12    1
    18    12    13    1
    19    13    25    1
    20    13    26    1
    21    13    14    1
    22    14    15    1
    23    14    27    1
    24    14    28    1
    25    15    16    1
    26    15    29    1
    27    15    30    1
    28    16    17    1
    29    17    20    2
    30    17    33    1
    31    18    19    2
    32    18    32    1
    33    18    43    1
    34    19    20    1
    35    19    42    1
    36    20    31    1
    37    32    33    2
    38    32    37    1
    39    33    34    1
    40    34    35    2
    41    34    38    1
    42    35    36    1
    43    35    39    1
    44    36    37    2
    45    36    40    1
    46    37    41    1
