@<TRIPOS>MOLECULE
lig
  43   46 0 0 0
SMALL
NO_CHARGES


@<TRIPOS>ATOM
      1 O_00          3.8290  -49.9082    7.3567 o0      1  lig      -0.760400
      2 C_01          3.1153  -49.0416    6.8012 c4      1  lig       0.799700
      3 O_02          3.5513  -47.8977    6.5562 o1      1  lig      -0.767700
      4 C_03          1.7057  -49.3580    6.4403 c5      1  lig       0.149200
      5 C_04         -0.1076  -50.6487    6.3793 c6      1  lig       0.307700
      6 C_05         -1.0211  -51.7084    6.5402 c7      1  lig      -0.256700
      7 C_06         -2.3348  -51.5531    6.0492 c8      1  lig      -0.168900
      8 C_07         -2.6993  -50.3586    5.3936 c9      1  lig      -0.232200
      9 C_08         -1.7635  -49.3099    5.2420 cb      1  lig      -0.191300
     10 C_09         -0.4423  -49.4338    5.7433 ci      1  lig       0.036500
     11 C_0a          0.7328  -48.6071    5.8015 cj      1  lig      -0.233000
     12 C_0b          0.8592  -47.2049    5.2675 ck      1  lig      -0.009900
     13 C_0c          0.9701  -46.1519    6.3924 cm      1  lig       0.055600
     14 C_0d         -0.0852  -45.0395    6.3276 cn      1  lig      -0.080000
     15 O_0e         -1.4118  -45.4805    6.0441 o2      1  lig      -0.338700
     16 C_0f         -2.2386  -45.8040    7.0949 co      1  lig       0.199100
     17 C_0g         -4.0387  -46.5572    9.1587 cq      1  lig      -0.222700
     18 C_0h         -2.7241  -47.0517    9.1502 cr      1  lig      -0.239000
     19 C_0i         -1.8288  -46.6752    8.1339 cs      1  lig      -0.152400
     20 H_0j         -0.7241  -52.6191    7.0419 h0      1  lig       0.156700
     21 H_0k         -3.0568  -52.3474    6.1618 h6      1  lig       0.132300
     22 H_0l         -3.7027  -50.2338    5.0158 h7      1  lig       0.137000
     23 H_0m         -2.0623  -48.3873    4.7602 h8      1  lig       0.158000
     24 H_0n          0.0186  -46.9829    4.6116 h9      1  lig       0.058000
     25 H_0o          1.7413  -47.1366    4.6230 hb      1  lig       0.058000
     26 H_0p          1.9528  -45.6851    6.3456 hd      1  lig       0.013200
     27 H_0q          0.9550  -46.6329    7.3658 he      1  lig       0.013200
     28 H_0r          0.1913  -44.3765    5.5164 hf      1  lig       0.108800
     29 H_0s         -0.0677  -44.4348    7.2308 hg      1  lig       0.108800
     30 H_0t         -0.8492  -47.1142    8.1369 hh      1  lig       0.135700
     31 C_0u         -4.4644  -45.6869    8.1312 ct      1  lig       0.080300
     32 C_0v         -3.5686  -45.3157    7.0918 cw      1  lig       0.078900
     33 C_0w         -4.0196  -44.4491    6.0697 cA      1  lig      -0.143500
     34 C_0x         -5.3473  -43.9766    6.0646 cB      1  lig      -0.166800
     35 C_0y         -6.2357  -44.3575    7.0895 cC      1  lig      -0.162700
     36 C_0z         -5.7910  -45.2055    8.1244 cD      1  lig      -0.180200
     37 H_10         -3.3603  -44.1405    5.2743 hi      1  lig       0.124800
     38 H_11         -5.6744  -43.3185    5.2717 hj      1  lig       0.137500
     39 H_12         -7.2548  -43.9991    7.0843 hk      1  lig       0.136800
     40 H_13         -6.4744  -45.4962    8.9093 hl      1  lig       0.127200
     41 H_14         -2.4004  -47.7370    9.9189 hm      1  lig       0.168900
     42 H_15         -4.7163  -46.8570    9.9410 hq      1  lig       0.139700
     43 O_16          1.2056  -50.5983    6.7955 o3      1  lig      -0.315500
@<TRIPOS>BOND
     1     1     2    2
     2     2     3    1
     3     2     4    1
     4     4    11    2
     5     4    43    1
     6     5     6    1
     7     5    10    2
     8     5    43    1
     9     6     7    2
    10     6    20    1
    11     7     8    1
    12     7    21    1
    13     8     9    2
    14     8    22    1
    15     9    10    1
    16     9    23    1
    17    10    11    1
    18    11    12    1
    19    12    24    1
    20    12    25    1
    21    12    13    1
    22    13    14    1
    23    13    26    1
    24    13    27    1
    25    14    15    1
    26    14    28    1
    27    14    29    1
    28    15    16    1
    29    16    19    2
    30    16    32    1
    31    17    18    2
    32    17    31    1
    33    17    42    1
    34    18    19    1
    35    18    41    1
    36    19    30    1
    37    31    32    2
    38    31    36    1
    39    32    33    1
    40    33    34    2
    41    33    37    1
    42    34    35    1
    43    34    38    1
    44    35    36    2
    45    35    39    1
    46    36    40    1
