@<TRIPOS>MOLECULE
lig
  38   40 0 0 0
SMALL
NO_CHARGES


@<TRIPOS>ATOM
      1 O_00          3.5620  -47.7655    6.2857 o0      1  lig      -0.758800
      2 C_01          3.0106  -48.7677    6.7913 c4      1  lig       0.833600
      3 O_02          3.6267  -49.5212    7.5837 o1      1  lig      -0.796100
      4 C_03          1.5987  -49.0922    6.4610 c5      1  lig      -0.009100
      5 C_04         -0.2460  -50.4444    6.5734 c6      1  lig       0.162500
      6 C_05         -1.2006  -51.4538    6.8287 c7      1  lig      -0.246500
      7 C_06         -2.4848  -51.3550    6.2582 c8      1  lig      -0.169400
      8 C_07         -2.8075  -50.2415    5.4534 c9      1  lig      -0.233500
      9 C_08         -1.8538  -49.2332    5.2139 cb      1  lig      -0.162100
     10 C_09         -0.5510  -49.3043    5.7662 ci      1  lig       0.033400
     11 C_0a          0.6244  -48.4626    5.7171 cj      1  lig      -0.135000
     12 C_0b          0.7436  -47.1491    4.9892 ck      1  lig       0.050900
     13 C_0c          0.8629  -45.9369    5.9353 cm      1  lig      -0.011700
     14 C_0d         -0.3435  -45.7461    6.8598 cn      1  lig      -0.099900
     15 O_0e         -1.4738  -45.3700    6.0783 o2      1  lig      -0.296800
     16 C_0f         -2.6659  -45.1791    6.7323 co      1  lig       0.228900
     17 C_0g         -2.8936  -45.5089    8.0957 cq      1  lig      -0.120700
     18 C_0h         -4.1486  -45.2841    8.6877 cr      1  lig      -0.203900
     19 C_0i         -5.1945  -44.7219    7.9306 cs      1  lig      -0.165700
     20 C_0j         -4.9832  -44.3904    6.5801 ct      1  lig      -0.155100
     21 C_0k         -3.7285  -44.6254    5.9884 cw      1  lig      -0.173400
     22 H_0l         -0.9288  -52.3015    7.4431 h0      1  lig       0.141800
     23 H_0m         -3.2130  -52.1247    6.4483 h6      1  lig       0.124500
     24 H_0n         -3.7943  -50.1701    5.0203 h7      1  lig       0.127600
     25 H_0o         -2.1170  -48.3840    4.5924 h8      1  lig       0.150100
     26 H_0p         -0.1082  -47.0091    4.3235 h9      1  lig       0.003500
     27 H_0q          1.6134  -47.1680    4.3352 hb      1  lig       0.003500
     28 H_0r          1.0219  -45.0317    5.3513 hd      1  lig       0.038300
     29 H_0s          1.7514  -46.0358    6.5559 he      1  lig       0.038300
     30 H_0t         -0.1280  -44.9553    7.5803 hf      1  lig       0.105000
     31 H_0u         -0.5288  -46.6684    7.4145 hg      1  lig       0.105000
     32 H_0v         -2.1221  -45.9412    8.7152 hh      1  lig       0.105800
     33 H_0w         -3.5750  -44.3709    4.9495 hi      1  lig       0.123100
     34 N_0x          1.0676  -50.2717    6.9802 n0      1  lig      -0.397800
     35 H_0y          1.6380  -50.8971    7.5486 hj      1  lig       0.348800
     36 H_0z         -5.7824  -43.9588    5.9956 hk      1  lig       0.136100
     37 H_10         -6.1592  -44.5447    8.3870 hl      1  lig       0.123200
     38 H_11         -4.3155  -45.5485    9.7199 hm      1  lig       0.151600
@<TRIPOS>BOND
     1     1     2    2
     2     2     3    1
     3     2     4    1
     4     4    11    2
     5     4    34    1
     6     5     6    1
     7     5    10    2
     8     5    34    1
     9     6     7    2
    10     6    22    1
    11     7     8    1
    12     7    23    1
    13     8     9    2
    14     8    24    1
    15     9    10    1
    16     9    25    1
    17    10    11    1
    18    11    12    1
    19    12    26    1
    20    12    27    1
    21    12    13    1
    22    13    14    1
    23    13    28    1
    24    13    29    1
    25    14    15    1
    26    14    30    1
    27    14    31    1
    28    15    16    1
    29    16    17    2
    30    16    21    1
    31    17    18    1
    32    17    32    1
    33    18    19    2
    34    18    38    1
    35    19    20    1
    36    19    37    1
    37    20    21    2
    38    20    36    1
    39    21    33    1
    40    34    35    1
