@<TRIPOS>MOLECULE
lig
  41   43 0 0 0
SMALL
NO_CHARGES


@<TRIPOS>ATOM
      1 O_00          3.9028  -50.1313    6.9252 o0      1  lig      -0.794200
      2 C_01          3.1380  -49.1612    6.7262 c4      1  lig       0.822300
      3 O_02          3.5633  -47.9815    6.7264 o1      1  lig      -0.748800
      4 C_03          1.6985  -49.4262    6.5058 c5      1  lig       0.001300
      5 C_04         -0.0745  -50.8648    6.3721 c6      1  lig       0.150400
      6 C_05         -0.9478  -51.9675    6.3522 c7      1  lig      -0.238300
      7 C_06         -2.3225  -51.7622    6.1429 c8      1  lig      -0.168400
      8 C_07         -2.8137  -50.4555    5.9479 c9      1  lig      -0.224300
      9 C_08         -1.9309  -49.3561    5.9665 cb      1  lig      -0.188900
     10 C_09         -0.5423  -49.5315    6.1792 ci      1  lig       0.066400
     11 C_0a          0.5894  -48.6424    6.2612 cj      1  lig      -0.195700
     12 C_0b          0.5190  -47.1480    6.1437 ck      1  lig      -0.020100
     13 C_0c          0.1328  -46.5094    7.4893 cm      1  lig       0.056900
     14 C_0d         -0.4950  -45.1179    7.3420 cn      1  lig      -0.041900
     15 O_0e         -1.7518  -45.1827    6.6677 o2      1  lig      -0.355900
     16 C_0f         -2.9007  -45.4447    7.3863 co      1  lig       0.288100
     17 C_0g         -4.1347  -45.3236    6.7054 cq      1  lig       0.041600
     18 C_0h         -5.3517  -45.5713    7.3725 cr      1  lig      -0.227300
     19 C_0i         -5.3529  -45.9452    8.7282 cs      1  lig      -0.190400
     20 C_0j         -4.1342  -46.0720    9.4200 ct      1  lig      -0.204900
     21 C_0k         -2.9148  -45.8260    8.7539 cw      1  lig      -0.196200
     22 H_0l         -0.5638  -52.9671    6.5011 h0      1  lig       0.138800
     23 H_0m         -3.0050  -52.6004    6.1330 h6      1  lig       0.122200
     24 H_0n         -3.8700  -50.2982    5.7799 h7      1  lig       0.124100
     25 H_0o         -2.3259  -48.3598    5.8190 h8      1  lig       0.148000
     26 H_0p         -0.2135  -46.8785    5.3815 h9      1  lig       0.053400
     27 H_0q          1.4649  -46.7366    5.7895 hb      1  lig       0.053400
     28 H_0r          1.0182  -46.4639    8.1280 hd      1  lig       0.011100
     29 H_0s         -0.5765  -47.1565    8.0046 he      1  lig       0.011100
     30 H_0t          0.1695  -44.4859    6.7482 hf      1  lig       0.089100
     31 H_0u         -0.5828  -44.6195    8.3070 hg      1  lig       0.089100
     32 H_0v         -2.0028  -45.9352    9.3219 hh      1  lig       0.142200
     33 N_0w          1.2866  -50.7509    6.5622 n0      1  lig      -0.393700
     34 H_0x          1.9623  -51.4847    6.7363 hi      1  lig       0.351100
     35 H_0y         -4.1392  -46.3569   10.4611 hj      1  lig       0.155900
     36 H_0z         -6.2867  -46.1359    9.2357 hk      1  lig       0.137600
     37 H_10         -6.2915  -45.4738    6.8474 hl      1  lig       0.152400
     38 C_11         -4.1627  -44.9217    5.2458 cA      1  lig      -0.214300
     39 H_12         -5.1786  -44.9286    4.8507 hm      1  lig       0.065600
     40 H_13         -3.7525  -43.9155    5.1252 hq      1  lig       0.065600
     41 H_14         -3.5599  -45.6141    4.6558 hr      1  lig       0.065600
@<TRIPOS>BOND
     1     1     2    2
     2     2     3    1
     3     2     4    1
     4     4    11    2
     5     4    33    1
     6     5     6    1
     7     5    10    2
     8     5    33    1
     9     6     7    2
    10     6    22    1
    11     7     8    1
    12     7    23    1
    13     8     9    2
    14     8    24    1
    15     9    10    1
    16     9    25    1
    17    10    11    1
    18    11    12    1
    19    12    26    1
    20    12    27    1
    21    12    13    1
    22    13    14    1
    23    13    28    1
    24    13    29    1
    25    14    15    1
    26    14    30    1
    27    14    31    1
    28    15    16    1
    29    16    17    2
    30    16    21    1
    31    17    18    1
    32    17    38    1
    33    18    19    2
    34    18    37    1
    35    19    20    1
    36    19    36    1
    37    20    21    2
    38    20    35    1
    39    21    32    1
    40    33    34    1
    41    38    39    1
    42    38    40    1
    43    38    41    1
