@<TRIPOS>MOLECULE
lig
  41   43 0 0 0
SMALL
NO_CHARGES


@<TRIPOS>ATOM
      1 O_00          3.4235  -47.4990    6.3034 o0      1  lig      -0.764000
      2 C_01          3.0281  -48.6146    6.7306 c4      1  lig       0.840900
      3 O_02          3.7777  -49.3670    7.3880 o1      1  lig      -0.796100
      4 C_03          1.6462  -49.0711    6.4354 c5      1  lig      -0.010000
      5 C_04         -0.0124  -50.6359    6.4318 c6      1  lig       0.158900
      6 C_05         -0.8349  -51.7756    6.5605 c7      1  lig      -0.227500
      7 C_06         -2.1553  -51.7463    6.0659 c8      1  lig      -0.188600
      8 C_07         -2.6490  -50.5721    5.4633 c9      1  lig      -0.222000
      9 C_08         -1.8305  -49.4302    5.3533 cb      1  lig      -0.152800
     10 C_09         -0.4988  -49.4369    5.8254 ci      1  lig       0.039300
     11 C_0a          0.5621  -48.4620    5.8353 cj      1  lig      -0.135200
     12 C_0b          0.4741  -47.0549    5.3074 ck      1  lig       0.058900
     13 C_0c          0.2593  -45.9878    6.3953 cm      1  lig       0.044300
     14 C_0d         -0.9490  -46.2558    7.3130 cn      1  lig      -0.088900
     15 O_0e         -2.1030  -46.5044    6.5056 o2      1  lig      -0.269800
     16 C_0f         -3.2262  -45.7691    6.7833 co      1  lig       0.203400
     17 C_0g         -3.9083  -45.8174    8.0302 cq      1  lig      -0.034500
     18 C_0h         -5.0388  -45.0029    8.2360 cr      1  lig      -0.122900
     19 C_0i         -5.5258  -44.1802    7.2022 cs      1  lig      -0.219200
     20 C_0j         -4.8795  -44.1671    5.9535 ct      1  lig      -0.176500
     21 C_0k         -3.7380  -44.9715    5.7491 cw      1  lig      -0.127600
     22 H_0l         -0.4485  -52.6682    7.0285 h0      1  lig       0.137300
     23 H_0m         -2.7847  -52.6214    6.1499 h6      1  lig       0.126300
     24 H_0n         -3.6651  -50.5448    5.0945 h7      1  lig       0.131800
     25 H_0o         -2.2263  -48.5307    4.8977 h8      1  lig       0.127500
     26 H_0p         -0.3446  -46.9804    4.5798 h9      1  lig       0.000600
     27 H_0q          1.3764  -46.8128    4.7403 hb      1  lig       0.000600
     28 H_0r          0.1490  -45.0086    5.9257 hd      1  lig       0.021000
     29 H_0s          1.1532  -45.9271    7.0191 he      1  lig       0.021000
     30 H_0t         -1.0828  -45.4053    7.9823 hf      1  lig       0.098400
     31 H_0u         -0.7338  -47.1268    7.9398 hg      1  lig       0.098400
     32 H_0v         -3.2615  -44.9721    4.7823 hh      1  lig       0.123200
     33 N_0w          1.2854  -50.3610    6.7961 n0      1  lig      -0.417100
     34 H_0x          1.9552  -50.9988    7.2443 hi      1  lig       0.356100
     35 H_0y         -5.2563  -43.5482    5.1476 hj      1  lig       0.160000
     36 H_0z         -6.4020  -43.5721    7.3503 hk      1  lig       0.146100
     37 H_10         -5.5568  -45.0126    9.1813 hl      1  lig       0.144500
     38 F_11         -2.4349  -46.1863    9.7809 f0      1  lig      -0.182000
     39 C_12         -3.4514  -46.7482    9.1429 cA      1  lig       0.439000
     40 F_13         -4.4113  -46.9759   10.0447 f1      1  lig      -0.188500
     41 F_14         -3.0629  -47.9301    8.6622 f2      1  lig      -0.154300
@<TRIPOS>BOND
     1     1     2    2
     2     2     3    1
     3     2     4    1
     4     4    11    2
     5     4    33    1
     6     5     6    1
     7     5    10    2
     8     5    33    1
     9     6     7    2
    10     6    22    1
    11     7     8    1
    12     7    23    1
    13     8     9    2
    14     8    24    1
    15     9    10    1
    16     9    25    1
    17    10    11    1
    18    11    12    1
    19    12    26    1
    20    12    27    1
    21    12    13    1
    22    13    14    1
    23    13    28    1
    24    13    29    1
    25    14    15    1
    26    14    30    1
    27    14    31    1
    28    15    16    1
    29    16    17    2
    30    16    21    1
    31    17    18    1
    32    17    39    1
    33    18    19    2
    34    18    37    1
    35    19    20    1
    36    19    36    1
    37    20    21    2
    38    20    35    1
    39    21    32    1
    40    33    34    1
    41    38    39    1
    42    39    40    1
    43    39    41    1
