@<TRIPOS>MOLECULE
lig
  41   43 0 0 0
SMALL
NO_CHARGES


@<TRIPOS>ATOM
      1 O_00          3.7086  -50.0138    7.0134 o0      1  lig      -0.795300
      2 C_01          3.0488  -49.0009    6.6642 c4      1  lig       0.832600
      3 O_02          3.5629  -47.8679    6.6025 o1      1  lig      -0.757900
      4 C_03          1.6061  -49.1679    6.3503 c5      1  lig      -0.019500
      5 C_04         -0.3127  -50.3896    6.2492 c6      1  lig       0.155500
      6 C_05         -1.3056  -51.3826    6.3084 c7      1  lig      -0.241600
      7 C_06         -2.6361  -51.0463    5.9759 c8      1  lig      -0.169100
      8 C_07         -2.9446  -49.7367    5.5736 c9      1  lig      -0.227600
      9 C_08         -1.9388  -48.7516    5.5050 cb      1  lig      -0.168800
     10 C_09         -0.5911  -49.0537    5.8486 ci      1  lig       0.038800
     11 C_0a          0.6353  -48.2926    5.9041 cj      1  lig      -0.122900
     12 C_0b          0.8089  -46.8342    5.5612 ck      1  lig       0.058800
     13 C_0c          0.8737  -45.9328    6.8109 cm      1  lig      -0.009500
     14 C_0d         -0.4305  -45.9192    7.6156 cn      1  lig      -0.138900
     15 O_0e         -1.3927  -45.1905    6.8684 o2      1  lig      -0.258400
     16 C_0f         -2.6929  -45.1866    7.3131 co      1  lig       0.140400
     17 C_0g         -3.1490  -45.8766    8.4660 cq      1  lig      -0.132100
     18 C_0h         -4.5087  -45.8424    8.8313 cr      1  lig       0.039200
     19 C_0i         -5.4211  -45.0930    8.0629 cs      1  lig      -0.219300
     20 C_0j         -4.9781  -44.3962    6.9226 ct      1  lig      -0.204200
     21 C_0k         -3.6217  -44.4510    6.5497 cw      1  lig      -0.134100
     22 H_0l         -1.0551  -52.3834    6.6110 h0      1  lig       0.140500
     23 H_0m         -3.4056  -51.7983    6.0255 h6      1  lig       0.122300
     24 H_0n         -3.9643  -49.4862    5.3115 h7      1  lig       0.125600
     25 H_0o         -2.1991  -47.7505    5.1961 h8      1  lig       0.151900
     26 H_0p          0.0010  -46.5000    4.9071 h9      1  lig      -0.000500
     27 H_0q          1.7256  -46.6956    4.9795 hb      1  lig      -0.000500
     28 H_0r          1.1203  -44.9133    6.5123 hd      1  lig       0.039500
     29 H_0s          1.6903  -46.2673    7.4466 he      1  lig       0.039500
     30 H_0t         -0.2709  -45.4377    8.5803 hf      1  lig       0.115400
     31 H_0u         -0.7619  -46.9401    7.8074 hg      1  lig       0.115400
     32 H_0v         -2.4734  -46.4519    9.0781 hh      1  lig       0.108000
     33 H_0w         -3.2874  -43.9302    5.6654 hi      1  lig       0.117200
     34 N_0x          1.0444  -50.4156    6.5272 n0      1  lig      -0.398200
     35 H_0y          1.6065  -51.2074    6.8324 hj      1  lig       0.351100
     36 H_0z         -5.6766  -43.8255    6.3274 hk      1  lig       0.152400
     37 H_10         -6.4649  -45.0576    8.3356 hl      1  lig       0.137500
     38 C_11         -4.9806  -46.6345   10.0352 cA      1  lig      -0.110100
     39 H_12         -6.0496  -46.4952   10.2062 hm      1  lig       0.042300
     40 H_13         -4.7949  -47.6981    9.8697 hq      1  lig       0.042300
     41 H_14         -4.4404  -46.3264   10.9326 hr      1  lig       0.042300
@<TRIPOS>BOND
     1     1     2    2
     2     2     3    1
     3     2     4    1
     4     4    11    2
     5     4    34    1
     6     5     6    1
     7     5    10    2
     8     5    34    1
     9     6     7    2
    10     6    22    1
    11     7     8    1
    12     7    23    1
    13     8     9    2
    14     8    24    1
    15     9    10    1
    16     9    25    1
    17    10    11    1
    18    11    12    1
    19    12    26    1
    20    12    27    1
    21    12    13    1
    22    13    14    1
    23    13    28    1
    24    13    29    1
    25    14    15    1
    26    14    30    1
    27    14    31    1
    28    15    16    1
    29    16    17    2
    30    16    21    1
    31    17    18    1
    32    17    32    1
    33    18    19    2
    34    18    38    1
    35    19    20    1
    36    19    37    1
    37    20    21    2
    38    20    36    1
    39    21    33    1
    40    34    35    1
    41    38    39    1
    42    38    40    1
    43    38    41    1
