@<TRIPOS>MOLECULE
lig
  41   43 0 0 0
SMALL
NO_CHARGES


@<TRIPOS>ATOM
      1 O_00          3.5641  -47.7534    6.2143 o0      1  lig      -0.755400
      2 C_01          3.0122  -48.7554    6.7454 c4      1  lig       0.826800
      3 O_02          3.6123  -49.5070    7.5449 o1      1  lig      -0.791400
      4 C_03          1.5969  -49.0608    6.3966 c5      1  lig      -0.015200
      5 C_04         -0.2442  -50.4134    6.4643 c6      1  lig       0.152500
      6 C_05         -1.2037  -51.4312    6.6788 c7      1  lig      -0.240400
      7 C_06         -2.5043  -51.2795    6.1613 c8      1  lig      -0.165500
      8 C_07         -2.8377  -50.1268    5.4226 c9      1  lig      -0.238700
      9 C_08         -1.8793  -49.1151    5.2073 cb      1  lig      -0.154100
     10 C_09         -0.5657  -49.2279    5.7279 ci      1  lig       0.032500
     11 C_0a          0.6141  -48.3957    5.7009 cj      1  lig      -0.129500
     12 C_0b          0.7301  -47.0351    5.0529 ck      1  lig       0.065600
     13 C_0c          0.7552  -45.8921    6.0871 cm      1  lig      -0.017700
     14 C_0d         -0.5322  -45.7699    6.9086 cn      1  lig      -0.126900
     15 O_0e         -1.5383  -45.2373    6.0607 o2      1  lig      -0.287800
     16 C_0f         -2.7966  -45.0645    6.5801 co      1  lig       0.227400
     17 C_0g         -3.2770  -45.7162    7.7440 cq      1  lig      -0.170400
     18 C_0h         -4.5937  -45.5045    8.1936 cr      1  lig      -0.055700
     19 C_0i         -5.4351  -44.6171    7.4875 cs      1  lig      -0.132900
     20 C_0j         -4.9679  -43.9681    6.3316 ct      1  lig      -0.208400
     21 C_0k         -3.6549  -44.1973    5.8830 cw      1  lig      -0.137200
     22 H_0l         -0.9293  -52.3080    7.2373 h0      1  lig       0.142000
     23 H_0m         -3.2343  -52.0545    6.3287 h6      1  lig       0.124400
     24 H_0n         -3.8309  -50.0299    5.0245 h7      1  lig       0.127800
     25 H_0o         -2.1597  -48.2368    4.6387 h8      1  lig       0.143200
     26 H_0p         -0.0757  -46.8844    4.3251 h9      1  lig      -0.000800
     27 H_0q          1.6496  -47.0026    4.4706 hb      1  lig      -0.000800
     28 H_0r          0.9511  -44.9495    5.5770 hd      1  lig       0.042500
     29 H_0s          1.5892  -46.0434    6.7679 he      1  lig       0.042500
     30 H_0t         -0.3754  -45.0980    7.7560 hf      1  lig       0.119800
     31 H_0u         -0.8071  -46.7438    7.3136 hg      1  lig       0.119800
     32 H_0v         -2.6512  -46.4014    8.2886 hh      1  lig       0.131900
     33 H_0w         -3.3054  -43.7005    4.9910 hi      1  lig       0.130300
     34 N_0x          1.0786  -50.2786    6.8435 n0      1  lig      -0.391200
     35 H_0y          1.6576  -50.9409    7.3678 hj      1  lig       0.349800
     36 H_0z         -5.6168  -43.2999    5.7853 hk      1  lig       0.158800
     37 H_10         -6.4444  -44.4497    7.8279 hl      1  lig       0.130800
     38 F_11         -5.7749  -45.4084   10.2138 f0      1  lig      -0.197300
     39 C_12         -5.1355  -46.2506    9.4023 cA      1  lig       0.543100
     40 F_13         -5.9929  -47.1821    8.9848 f1      1  lig      -0.187300
     41 F_14         -4.1591  -46.8446   10.0908 f2      1  lig      -0.206900
@<TRIPOS>BOND
     1     1     2    2
     2     2     3    1
     3     2     4    1
     4     4    11    2
     5     4    34    1
     6     5     6    1
     7     5    10    2
     8     5    34    1
     9     6     7    2
    10     6    22    1
    11     7     8    1
    12     7    23    1
    13     8     9    2
    14     8    24    1
    15     9    10    1
    16     9    25    1
    17    10    11    1
    18    11    12    1
    19    12    26    1
    20    12    27    1
    21    12    13    1
    22    13    14    1
    23    13    28    1
    24    13    29    1
    25    14    15    1
    26    14    30    1
    27    14    31    1
    28    15    16    1
    29    16    17    2
    30    16    21    1
    31    17    18    1
    32    17    32    1
    33    18    19    2
    34    18    39    1
    35    19    20    1
    36    19    37    1
    37    20    21    2
    38    20    36    1
    39    21    33    1
    40    34    35    1
    41    38    39    1
    42    39    40    1
    43    39    41    1
