@<TRIPOS>MOLECULE
lig
  41   43 0 0 0
SMALL
NO_CHARGES


@<TRIPOS>ATOM
      1 O_00          3.5631  -47.8126    6.2553 o0      1  lig      -0.756800
      2 C_01          3.0220  -48.8134    6.7746 c4      1  lig       0.829700
      3 O_02          3.6456  -49.5539    7.5776 o1      1  lig      -0.794800
      4 C_03          1.6132  -49.1482    6.4568 c5      1  lig      -0.011700
      5 C_04         -0.2315  -50.4988    6.6095 c6      1  lig       0.154400
      6 C_05         -1.1869  -51.5016    6.8846 c7      1  lig      -0.238400
      7 C_06         -2.4765  -51.4084    6.3236 c8      1  lig      -0.172400
      8 C_07         -2.8024  -50.3149    5.4953 c9      1  lig      -0.231800
      9 C_08         -1.8441  -49.3159    5.2323 cb      1  lig      -0.159300
     10 C_09         -0.5398  -49.3743    5.7791 ci      1  lig       0.034500
     11 C_0a          0.6317  -48.5299    5.7107 cj      1  lig      -0.131500
     12 C_0b          0.7399  -47.2203    4.9660 ck      1  lig       0.060700
     13 C_0c          0.8620  -45.9947    5.8916 cm      1  lig      -0.007500
     14 C_0d         -0.3438  -45.7995    6.8144 cn      1  lig      -0.141100
     15 O_0e         -1.4784  -45.4115    6.0512 o2      1  lig      -0.284900
     16 C_0f         -2.6600  -45.1948    6.7290 co      1  lig       0.249300
     17 C_0g         -2.8553  -45.5250    8.0921 cq      1  lig      -0.162600
     18 C_0h         -4.0865  -45.2606    8.7177 cr      1  lig      -0.267300
     19 C_0i         -5.1349  -44.6543    8.0064 cs      1  lig       0.072800
     20 C_0j         -4.9501  -44.3373    6.6470 ct      1  lig      -0.155800
     21 C_0k         -3.7260  -44.6100    6.0126 cw      1  lig      -0.242500
     22 H_0l         -0.9210  -52.3321    7.5184 h0      1  lig       0.139500
     23 H_0m         -3.2056  -52.1744    6.5387 h6      1  lig       0.124500
     24 H_0n         -3.7891  -50.2438    5.0714 h7      1  lig       0.125700
     25 H_0o         -2.1041  -48.4784    4.5977 h8      1  lig       0.149900
     26 H_0p         -0.1267  -47.0932    4.3200 h9      1  lig      -0.000500
     27 H_0q          1.6015  -47.2535    4.3013 hb      1  lig      -0.000500
     28 H_0r          1.0037  -45.1044    5.2821 hd      1  lig       0.039500
     29 H_0s          1.7575  -46.0686    6.5120 he      1  lig       0.039500
     30 H_0t         -0.1118  -45.0203    7.5436 hf      1  lig       0.114500
     31 H_0u         -0.5318  -46.7227    7.3641 hg      1  lig       0.114500
     32 H_0v         -2.0818  -45.9790    8.6894 hh      1  lig       0.122400
     33 H_0w         -3.6033  -44.3562    4.9706 hi      1  lig       0.143300
     34 N_0x          1.0888  -50.3185    6.9933 n0      1  lig      -0.397000
     35 H_0y          1.6676  -50.9262    7.5783 hj      1  lig       0.350100
     36 H_0z         -5.7468  -43.8723    6.0826 hk      1  lig       0.131200
     37 H_10         -4.2172  -45.5201    9.7567 hl      1  lig       0.165600
     38 C_11         -6.4399  -44.3423    8.7154 cA      1  lig      -0.092200
     39 H_12         -7.1513  -43.8475    8.0470 hm      1  lig       0.029000
     40 H_13         -6.8942  -45.2648    9.0853 hq      1  lig       0.029000
     41 H_14         -6.2534  -43.6836    9.5682 hr      1  lig       0.029000
@<TRIPOS>BOND
     1     1     2    2
     2     2     3    1
     3     2     4    1
     4     4    11    2
     5     4    34    1
     6     5     6    1
     7     5    10    2
     8     5    34    1
     9     6     7    2
    10     6    22    1
    11     7     8    1
    12     7    23    1
    13     8     9    2
    14     8    24    1
    15     9    10    1
    16     9    25    1
    17    10    11    1
    18    11    12    1
    19    12    26    1
    20    12    27    1
    21    12    13    1
    22    13    14    1
    23    13    28    1
    24    13    29    1
    25    14    15    1
    26    14    30    1
    27    14    31    1
    28    15    16    1
    29    16    17    2
    30    16    21    1
    31    17    18    1
    32    17    32    1
    33    18    19    2
    34    18    37    1
    35    19    20    1
    36    19    38    1
    37    20    21    2
    38    20    36    1
    39    21    33    1
    40    34    35    1
    41    38    39    1
    42    38    40    1
    43    38    41    1
