@<TRIPOS>MOLECULE
lig
  38   40 0 0 0
SMALL
NO_CHARGES


@<TRIPOS>ATOM
      1 O_00          3.6157  -50.1315    7.3800 o0      1  lig      -0.792300
      2 C_01          3.0170  -49.1138    6.9676 c4      1  lig       0.831100
      3 O_02          3.5644  -47.9851    6.9019 o1      1  lig      -0.755200
      4 C_03          1.6043  -49.2459    6.5419 c5      1  lig      -0.027700
      5 C_04         -0.3113  -50.4722    6.2833 c6      1  lig       0.142700
      6 C_05         -1.3178  -51.4535    6.2650 c7      1  lig      -0.235300
      7 C_06         -2.5967  -51.1141    5.7749 c8      1  lig      -0.174500
      8 C_07         -2.8523  -49.8053    5.3101 c9      1  lig      -0.230900
      9 C_08         -1.8339  -48.8336    5.3312 cb      1  lig      -0.161400
     10 C_09         -0.5363  -49.1416    5.8192 ci      1  lig       0.038000
     11 C_0a          0.6789  -48.3880    5.9873 cj      1  lig      -0.125500
     12 C_0b          0.8824  -46.9418    5.6154 ck      1  lig       0.060400
     13 C_0c          0.6891  -45.9795    6.8002 cm      1  lig      -0.020300
     14 C_0d         -0.7339  -45.9723    7.3808 cn      1  lig      -0.107400
     15 O_0e         -1.6585  -45.6662    6.3443 o2      1  lig      -0.285300
     16 C_0f         -2.9587  -45.3534    6.6806 co      1  lig       0.243900
     17 C_0g         -3.4415  -45.2780    8.0126 cq      1  lig      -0.182000
     18 C_0h         -4.7727  -44.8870    8.2638 cr      1  lig      -0.109400
     19 C_0i         -5.6345  -44.5827    7.1953 cs      1  lig      -0.024500
     20 C_0j         -5.1783  -44.6966    5.8690 ct      1  lig      -0.063700
     21 C_0k         -3.8496  -45.0887    5.6179 cw      1  lig      -0.231600
     22 H_0l         -1.0976  -52.4485    6.6218 h0      1  lig       0.141100
     23 H_0m         -3.3720  -51.8638    5.7580 h6      1  lig       0.127000
     24 H_0n         -3.8398  -49.5448    4.9387 h7      1  lig       0.127900
     25 H_0o         -2.0372  -47.8283    4.9825 h8      1  lig       0.148300
     26 H_0p          0.2119  -46.6666    4.8034 h9      1  lig       0.000700
     27 H_0q          1.8875  -46.8041    5.2117 hb      1  lig       0.000700
     28 H_0r          0.9411  -44.9683    6.4741 hd      1  lig       0.041200
     29 H_0s          1.3987  -46.2206    7.5935 he      1  lig       0.041200
     30 H_0t         -0.7710  -45.2292    8.1737 hf      1  lig       0.111300
     31 H_0u         -0.9778  -46.9317    7.8279 hg      1  lig       0.111300
     32 H_0v         -2.8136  -45.5076    8.8532 hh      1  lig       0.126400
     33 H_0w         -3.5008  -45.1803    4.6040 hi      1  lig       0.145100
     34 N_0x          1.0091  -50.4890    6.6902 n0      1  lig      -0.380900
     35 H_0y          1.5399  -51.2626    7.0744 hj      1  lig       0.347700
     36 H_0z         -5.8318  -44.4759    5.0392 hk      1  lig       0.134900
     37 Cl10         -7.2450  -44.0498    7.5067 a0      1  lig      -0.163500
     38 H_11         -5.1205  -44.8093    9.2815 hl      1  lig       0.150500
@<TRIPOS>BOND
     1     1     2    2
     2     2     3    1
     3     2     4    1
     4     4    11    2
     5     4    34    1
     6     5     6    1
     7     5    10    2
     8     5    34    1
     9     6     7    2
    10     6    22    1
    11     7     8    1
    12     7    23    1
    13     8     9    2
    14     8    24    1
    15     9    10    1
    16     9    25    1
    17    10    11    1
    18    11    12    1
    19    12    26    1
    20    12    27    1
    21    12    13    1
    22    13    14    1
    23    13    28    1
    24    13    29    1
    25    14    15    1
    26    14    30    1
    27    14    31    1
    28    15    16    1
    29    16    17    2
    30    16    21    1
    31    17    18    1
    32    17    32    1
    33    18    19    2
    34    18    38    1
    35    19    20    1
    36    19    37    1
    37    20    21    2
    38    20    36    1
    39    21    33    1
    40    34    35    1
