@<TRIPOS>MOLECULE
lig
  41   43 0 0 0
SMALL
NO_CHARGES


@<TRIPOS>ATOM
      1 O_00          3.8542  -50.1657    7.1652 o0      1  lig      -0.792500
      2 C_01          3.1289  -49.1923    6.8519 c4      1  lig       0.831400
      3 O_02          3.5613  -48.0246    6.8255 o1      1  lig      -0.754700
      4 C_03          1.7066  -49.4720    6.5208 c5      1  lig      -0.009400
      5 C_04         -0.0964  -50.8628    6.3290 c6      1  lig       0.143600
      6 C_05         -1.0022  -51.9381    6.3224 c7      1  lig      -0.234900
      7 C_06         -2.3608  -51.6992    5.9962 c8      1  lig      -0.165600
      8 C_07         -2.7795  -50.3974    5.6675 c9      1  lig      -0.225100
      9 C_08         -1.8647  -49.3287    5.6661 cb      1  lig      -0.190600
     10 C_09         -0.4959  -49.5353    6.0071 ci      1  lig       0.065300
     11 C_0a          0.6533  -48.6750    6.1162 cj      1  lig      -0.190500
     12 C_0b          0.6653  -47.2011    5.8557 ck      1  lig       0.011500
     13 C_0c          0.2404  -46.4057    7.0971 cm      1  lig       0.058000
     14 C_0d         -0.3171  -45.0238    6.7322 cn      1  lig      -0.051300
     15 O_0e         -1.5243  -45.1759    5.9865 o2      1  lig      -0.419300
     16 C_0f         -2.7274  -45.1910    6.6616 co      1  lig       0.387600
     17 C_0g         -2.8647  -45.3931    8.0557 cq      1  lig      -0.207200
     18 C_0h         -4.1364  -45.3621    8.6632 cr      1  lig      -0.175500
     19 C_0i         -5.2914  -45.1174    7.8895 cs      1  lig      -0.028300
     20 C_0j         -5.1599  -44.9490    6.4967 ct      1  lig      -0.202300
     21 C_0k         -3.8904  -44.9919    5.8885 cw      1  lig      -0.209200
     22 H_0l         -0.6669  -52.9299    6.5668 h0      1  lig       0.139900
     23 H_0m         -3.0649  -52.5176    5.9992 h6      1  lig       0.122400
     24 H_0n         -3.8207  -50.2190    5.4109 h7      1  lig       0.126300
     25 H_0o         -2.2076  -48.3361    5.4103 h8      1  lig       0.145900
     26 H_0p         -0.0009  -46.9824    5.0179 h9      1  lig       0.043400
     27 H_0q          1.6525  -46.8644    5.5315 hb      1  lig       0.043400
     28 H_0r          1.0842  -46.3136    7.7804 hd      1  lig       0.006700
     29 H_0s         -0.5256  -46.9611    7.6395 he      1  lig       0.006700
     30 H_0t          0.4056  -44.4957    6.1065 hf      1  lig       0.108500
     31 H_0u         -0.4475  -44.4035    7.6182 hg      1  lig       0.108500
     32 H_0v         -2.0036  -45.5774    8.6831 hh      1  lig       0.145200
     33 H_0w         -3.8070  -44.8518    4.8205 hi      1  lig       0.144200
     34 N_0x          1.2567  -50.7778    6.6179 n0      1  lig      -0.384500
     35 H_0y          1.8853  -51.5328    6.8799 hj      1  lig       0.348000
     36 H_0z         -6.0378  -44.7693    5.8959 hk      1  lig       0.175200
     37 H_10         -4.2092  -45.5129    9.7298 hl      1  lig       0.161300
     38 C_11         -6.6672  -45.0309    8.5319 cA      1  lig       0.507700
     39 F_12         -7.4786  -45.9218    7.9588 f0      1  lig      -0.196300
     40 F_13         -6.6158  -45.2723    9.8435 f1      1  lig      -0.186500
     41 F_14         -7.1584  -43.8055    8.3407 f2      1  lig      -0.207000
@<TRIPOS>BOND
     1     1     2    2
     2     2     3    1
     3     2     4    1
     4     4    11    2
     5     4    34    1
     6     5     6    1
     7     5    10    2
     8     5    34    1
     9     6     7    2
    10     6    22    1
    11     7     8    1
    12     7    23    1
    13     8     9    2
    14     8    24    1
    15     9    10    1
    16     9    25    1
    17    10    11    1
    18    11    12    1
    19    12    26    1
    20    12    27    1
    21    12    13    1
    22    13    14    1
    23    13    28    1
    24    13    29    1
    25    14    15    1
    26    14    30    1
    27    14    31    1
    28    15    16    1
    29    16    17    2
    30    16    21    1
    31    17    18    1
    32    17    32    1
    33    18    19    2
    34    18    37    1
    35    19    20    1
    36    19    38    1
    37    20    21    2
    38    20    36    1
    39    21    33    1
    40    34    35    1
    41    38    39    1
    42    38    40    1
    43    38    41    1
