@<TRIPOS>MOLECULE
lig
  41   43 0 0 0
SMALL
NO_CHARGES


@<TRIPOS>ATOM
      1 O_00          3.5648  -47.8113    6.2796 o0      1  lig      -0.756300
      2 C_01          3.0310  -48.8242    6.8004 c4      1  lig       0.827300
      3 O_02          3.6630  -49.5724    7.5811 o1      1  lig      -0.793200
      4 C_03          1.6183  -49.1519    6.4787 c5      1  lig       0.003300
      5 C_04         -0.2217  -50.4968    6.5938 c6      1  lig       0.164900
      6 C_05         -1.1816  -51.5029    6.8463 c7      1  lig      -0.243500
      7 C_06         -2.4635  -51.3995    6.2697 c8      1  lig      -0.175900
      8 C_07         -2.7770  -50.2885    5.4590 c9      1  lig      -0.217400
      9 C_08         -1.8231  -49.2850    5.2249 cb      1  lig      -0.164700
     10 C_09         -0.5246  -49.3637    5.7854 ci      1  lig       0.047000
     11 C_0a          0.6491  -48.5159    5.7434 cj      1  lig      -0.154400
     12 C_0b          0.7691  -47.1896    5.0377 ck      1  lig       0.094800
     13 C_0c          0.8370  -45.9992    6.0190 cm      1  lig       0.004100
     14 C_0d         -0.4250  -45.8461    6.8783 cn      1  lig      -0.191600
     15 O_0e         -1.5112  -45.4316    6.0568 o2      1  lig      -0.241100
     16 C_0f         -2.7184  -45.2208    6.6770 co      1  lig       0.106200
     17 C_0g         -3.0811  -45.7923    7.9227 cq      1  lig      -0.154200
     18 C_0h         -4.3343  -45.5354    8.5139 cr      1  lig       0.108000
     19 C_0i         -5.2346  -44.6602    7.8591 cs      1  lig      -0.012500
     20 C_0j         -4.8952  -44.1086    6.6071 ct      1  lig      -0.153100
     21 C_0k         -3.6498  -44.3988    6.0191 cw      1  lig      -0.158000
     22 H_0l         -0.9320  -52.3460    7.4726 h0      1  lig       0.141200
     23 H_0m         -3.2041  -52.1633    6.4560 h6      1  lig       0.124500
     24 H_0n         -3.7614  -50.2034    5.0261 h7      1  lig       0.129900
     25 H_0o         -2.0759  -48.4336    4.6099 h8      1  lig       0.144600
     26 H_0p         -0.0638  -47.0515    4.3496 h9      1  lig      -0.007300
     27 H_0q          1.6702  -47.1961    4.4252 hb      1  lig      -0.007300
     28 H_0r          1.0075  -45.0787    5.4596 hd      1  lig       0.033500
     29 H_0s          1.6919  -46.1052    6.6889 he      1  lig       0.033500
     30 H_0t         -0.2486  -45.0926    7.6503 hf      1  lig       0.137500
     31 H_0u         -0.6237  -46.7925    7.3796 hg      1  lig       0.137500
     32 H_0v         -2.4111  -46.4591    8.4420 hh      1  lig       0.116200
     33 H_0w         -3.4103  -43.9697    5.0602 hi      1  lig       0.136300
     34 N_0x          1.0877  -50.3279    6.9944 n0      1  lig      -0.417900
     35 H_0y          1.6574  -50.9325    7.5789 hj      1  lig       0.354200
     36 H_0z         -5.5902  -43.4580    6.0977 hk      1  lig       0.150600
     37 Cl10         -6.7603  -44.2478    8.5596 a0      1  lig      -0.166300
     38 C_11         -4.6696  -46.2368    9.8281 cA      1  lig      -0.159500
     39 H_12         -5.6654  -45.9873   10.2010 hl      1  lig       0.059700
     40 H_13         -4.6293  -47.3190    9.6861 hm      1  lig       0.059700
     41 H_14         -3.9434  -45.9806   10.6004 hq      1  lig       0.059700
@<TRIPOS>BOND
     1     1     2    2
     2     2     3    1
     3     2     4    1
     4     4    11    2
     5     4    34    1
     6     5     6    1
     7     5    10    2
     8     5    34    1
     9     6     7    2
    10     6    22    1
    11     7     8    1
    12     7    23    1
    13     8     9    2
    14     8    24    1
    15     9    10    1
    16     9    25    1
    17    10    11    1
    18    11    12    1
    19    12    26    1
    20    12    27    1
    21    12    13    1
    22    13    14    1
    23    13    28    1
    24    13    29    1
    25    14    15    1
    26    14    30    1
    27    14    31    1
    28    15    16    1
    29    16    17    2
    30    16    21    1
    31    17    18    1
    32    17    32    1
    33    18    19    2
    34    18    38    1
    35    19    20    1
    36    19    37    1
    37    20    21    2
    38    20    36    1
    39    21    33    1
    40    34    35    1
    41    38    39    1
    42    38    40    1
    43    38    41    1
