@<TRIPOS>MOLECULE
lig
  44   46 0 0 0
SMALL
NO_CHARGES


@<TRIPOS>ATOM
      1 O_00          3.6486  -50.1155    7.2936 o0      1  lig      -0.793400
      2 C_01          3.0238  -49.1116    6.8696 c4      1  lig       0.831600
      3 O_02          3.5639  -47.9877    6.7459 o1      1  lig      -0.757200
      4 C_03          1.5940  -49.2664    6.5154 c5      1  lig      -0.020700
      5 C_04         -0.3066  -50.5037    6.2446 c6      1  lig       0.135800
      6 C_05         -1.2942  -51.5082    6.1819 c7      1  lig      -0.231000
      7 C_06         -2.5933  -51.1778    5.7270 c8      1  lig      -0.173400
      8 C_07         -2.8850  -49.8590    5.3326 c9      1  lig      -0.231300
      9 C_08         -1.8855  -48.8628    5.3863 cb      1  lig      -0.152000
     10 C_09         -0.5718  -49.1585    5.8504 ci      1  lig       0.032200
     11 C_0a          0.6453  -48.4011    6.0244 cj      1  lig      -0.129900
     12 C_0b          0.8699  -46.9540    5.7115 ck      1  lig       0.071300
     13 C_0c          0.8705  -46.0612    6.9633 cm      1  lig      -0.011600
     14 C_0d         -0.5079  -45.9153    7.6192 cn      1  lig      -0.149400
     15 O_0e         -1.3791  -45.2890    6.6807 o2      1  lig      -0.264000
     16 C_0f         -2.7075  -45.1673    7.0098 co      1  lig       0.188400
     17 C_0g         -3.2736  -45.5369    8.2558 cq      1  lig      -0.177100
     18 C_0h         -4.6559  -45.3670    8.4996 cr      1  lig      -0.015300
     19 C_0i         -5.4813  -44.8248    7.4876 cs      1  lig      -0.005900
     20 C_0j         -4.9225  -44.4588    6.2513 ct      1  lig      -0.122900
     21 C_0k         -3.5495  -44.6330    6.0174 cw      1  lig      -0.192500
     22 H_0l         -1.0647  -52.5224    6.4767 h0      1  lig       0.140200
     23 H_0m         -3.3582  -51.9397    5.6845 h6      1  lig       0.125400
     24 H_0n         -3.8813  -49.6149    4.9781 h7      1  lig       0.127000
     25 H_0o         -2.1244  -47.8593    5.0781 h8      1  lig       0.145100
     26 H_0p          0.1213  -46.6056    4.9961 h9      1  lig      -0.002300
     27 H_0q          1.8239  -46.8346    5.2003 hb      1  lig      -0.002300
     28 H_0r          1.2319  -45.0664    6.6877 hd      1  lig       0.040100
     29 H_0s          1.5862  -46.4384    7.6933 he      1  lig       0.040100
     30 H_0t         -0.4291  -45.2978    8.5207 hf      1  lig       0.122600
     31 H_0u         -0.8854  -46.8978    7.9215 hg      1  lig       0.122600
     32 H_0v         -2.6600  -45.9640    9.0405 hh      1  lig       0.126600
     33 H_0w         -3.1406  -44.3521    5.0597 hi      1  lig       0.139200
     34 N_0x          1.0171  -50.5153    6.6494 n0      1  lig      -0.377100
     35 H_0y          1.5629  -51.3024    6.9815 hj      1  lig       0.345800
     36 H_0z         -5.5584  -44.0499    5.4821 hk      1  lig       0.142300
     37 Cl10         -7.1836  -44.6085    7.7292 a0      1  lig      -0.159000
     38 C_11         -5.2272  -45.7987    9.8469 cA      1  lig       0.115400
     39 H_12         -4.4603  -45.6871   10.6188 hl      1  lig      -0.012000
     40 H_13         -6.0455  -45.1381   10.1444 hm      1  lig      -0.012000
     41 C_14         -5.7150  -47.2564    9.8165 cB      1  lig      -0.011100
     42 H_15         -6.5051  -47.3917    9.0744 hq      1  lig       0.003900
     43 H_16         -4.8998  -47.9404    9.5631 hr      1  lig       0.003900
     44 H_17         -6.1126  -47.5448   10.7931 ht      1  lig       0.003900
@<TRIPOS>BOND
     1     1     2    2
     2     2     3    1
     3     2     4    1
     4     4    11    2
     5     4    34    1
     6     5     6    1
     7     5    10    2
     8     5    34    1
     9     6     7    2
    10     6    22    1
    11     7     8    1
    12     7    23    1
    13     8     9    2
    14     8    24    1
    15     9    10    1
    16     9    25    1
    17    10    11    1
    18    11    12    1
    19    12    26    1
    20    12    27    1
    21    12    13    1
    22    13    14    1
    23    13    28    1
    24    13    29    1
    25    14    15    1
    26    14    30    1
    27    14    31    1
    28    15    16    1
    29    16    17    2
    30    16    21    1
    31    17    18    1
    32    17    32    1
    33    18    19    2
    34    18    38    1
    35    19    20    1
    36    19    37    1
    37    20    21    2
    38    20    36    1
    39    21    33    1
    40    34    35    1
    41    38    39    1
    42    38    40    1
    43    38    41    1
    44    41    42    1
    45    41    43    1
    46    41    44    1
