@<TRIPOS>MOLECULE
lig
  44   46 0 0 0
SMALL
NO_CHARGES


@<TRIPOS>ATOM
      1 O_00          3.8718  -50.2361    7.2245 o0      1  lig      -0.796700
      2 C_01          3.1316  -49.2780    6.8995 c4      1  lig       0.838000
      3 O_02          3.5610  -48.1075    6.8535 o1      1  lig      -0.754900
      4 C_03          1.7186  -49.5691    6.5705 c5      1  lig      -0.010700
      5 C_04         -0.0592  -50.9948    6.4011 c6      1  lig       0.156800
      6 C_05         -0.9536  -52.0849    6.4146 c7      1  lig      -0.237300
      7 C_06         -2.3089  -51.8726    6.0773 c8      1  lig      -0.171300
      8 C_07         -2.7528  -50.5878    5.7200 c9      1  lig      -0.221200
      9 C_08         -1.8514  -49.5039    5.7068 cb      1  lig      -0.195100
     10 C_09         -0.4753  -49.6825    6.0507 ci      1  lig       0.065200
     11 C_0a          0.6554  -48.7964    6.1719 cj      1  lig      -0.183500
     12 C_0b          0.6195  -47.3137    5.9496 ck      1  lig      -0.002800
     13 C_0c          0.2592  -46.5733    7.2461 cm      1  lig       0.041800
     14 C_0d         -0.2682  -45.1542    7.0159 cn      1  lig      -0.010300
     15 O_0e         -1.4266  -45.1828    6.1895 o2      1  lig      -0.382700
     16 C_0f         -2.6770  -45.3015    6.7518 co      1  lig       0.291700
     17 C_0g         -2.9170  -45.6759    8.0958 cq      1  lig      -0.231900
     18 C_0h         -4.2343  -45.8324    8.5752 cr      1  lig       0.022700
     19 C_0i         -4.4648  -46.3044    9.9964 cs      1  lig      -0.175400
     20 C_0j         -5.3341  -45.5816    7.7206 ct      1  lig      -0.011700
     21 Cl0k         -6.9496  -45.7880    8.3010 a0      1  lig      -0.156700
     22 C_0l         -5.0974  -45.1838    6.3837 cw      1  lig       0.065300
     23 C_0m         -6.2586  -44.9543    5.4353 cA      1  lig      -0.095500
     24 C_0n         -3.7754  -45.0569    5.9068 cB      1  lig      -0.286400
     25 H_0o         -0.6099  -53.0639    6.6886 h0      1  lig       0.139600
     26 H_0p         -3.0079  -52.6920    6.0927 h6      1  lig       0.123300
     27 H_0q         -3.7876  -50.4245    5.4565 h7      1  lig       0.124900
     28 H_0r         -2.2150  -48.5192    5.4339 h8      1  lig       0.149400
     29 H_0s         -0.1070  -47.0886    5.1675 h9      1  lig       0.043800
     30 H_0t          1.5805  -46.9587    5.5729 hb      1  lig       0.043800
     31 H_0u          1.1251  -46.5601    7.9062 hd      1  lig       0.013700
     32 H_0v         -0.5106  -47.1361    7.7765 he      1  lig       0.013700
     33 H_0w          0.4899  -44.5605    6.4974 hf      1  lig       0.090600
     34 H_0x         -0.4532  -44.6511    7.9623 hg      1  lig       0.090600
     35 H_0y         -2.1047  -45.8852    8.7746 hh      1  lig       0.156100
     36 H_0z         -5.0633  -45.5829   10.5539 hi      1  lig       0.068700
     37 H_10         -4.9883  -47.2627    9.9924 hj      1  lig       0.068700
     38 H_11         -3.5238  -46.4500   10.5302 hk      1  lig       0.068700
     39 H_12         -5.9144  -44.6062    4.4587 hl      1  lig       0.044700
     40 H_13         -6.8176  -45.8821    5.2865 hm      1  lig       0.044700
     41 H_14         -6.9402  -44.2052    5.8399 hq      1  lig       0.044700
     42 H_15         -3.6027  -44.7867    4.8774 hr      1  lig       0.159000
     43 N_16          1.2925  -50.8807    6.6907 n0      1  lig      -0.399100
     44 H_17          1.9238  -51.5961    7.0008 ht      1  lig       0.353000
@<TRIPOS>BOND
     1     1     2    2
     2     2     3    1
     3     2     4    1
     4     4    11    2
     5     4    43    1
     6     5     6    1
     7     5    10    2
     8     5    43    1
     9     6     7    2
    10     6    25    1
    11     7     8    1
    12     7    26    1
    13     8     9    2
    14     8    27    1
    15     9    10    1
    16     9    28    1
    17    10    11    1
    18    11    12    1
    19    12    29    1
    20    12    30    1
    21    12    13    1
    22    13    14    1
    23    13    31    1
    24    13    32    1
    25    14    15    1
    26    14    33    1
    27    14    34    1
    28    15    16    1
    29    16    17    2
    30    16    24    1
    31    17    18    1
    32    17    35    1
    33    18    19    1
    34    18    20    2
    35    19    36    1
    36    19    37    1
    37    19    38    1
    38    20    21    1
    39    20    22    1
    40    22    23    1
    41    22    24    2
    42    23    39    1
    43    23    40    1
    44    23    41    1
    45    24    42    1
    46    43    44    1
