@<TRIPOS>MOLECULE
lig
  48   51 0 0 0
SMALL
NO_CHARGES


@<TRIPOS>ATOM
      1 O_00          3.5933  -49.9991    7.5555 o0      1  lig      -0.802000
      2 C_01          3.0001  -49.0713    6.9544 c4      1  lig       0.851300
      3 O_02          3.5624  -47.9815    6.7110 o1      1  lig      -0.765700
      4 C_03          1.5917  -49.2744    6.5446 c5      1  lig      -0.004700
      5 C_04         -0.3051  -50.5537    6.4875 c6      1  lig       0.172400
      6 C_05         -1.2894  -51.5592    6.6189 c7      1  lig      -0.242500
      7 C_06         -2.5514  -51.3707    6.0210 c8      1  lig      -0.158000
      8 C_07         -2.8162  -50.1743    5.3187 c9      1  lig      -0.232400
      9 C_08         -1.8241  -49.1776    5.2080 cb      1  lig      -0.179500
     10 C_09         -0.5385  -49.3399    5.7780 ci      1  lig       0.053500
     11 C_0a          0.6726  -48.5474    5.8120 cj      1  lig      -0.171500
     12 C_0b          0.9017  -47.2144    5.1306 ck      1  lig       0.054200
     13 C_0c          0.4907  -45.9835    5.9602 cm      1  lig      -0.045900
     14 C_0d         -1.0329  -45.8412    6.1442 cn      1  lig       0.063200
     15 O_0e         -1.4399  -46.5418    7.3177 o2      1  lig      -0.236600
     16 C_0f         -2.6980  -46.2729    7.8035 co      1  lig       0.159000
     17 C_0g         -3.7548  -45.7256    7.0283 cq      1  lig      -0.087900
     18 C_0h         -5.0251  -45.4767    7.6009 cr      1  lig      -0.049600
     19 C_0i         -5.2110  -45.7620    8.9755 cs      1  lig      -0.148800
     20 C_0j         -4.1688  -46.3092    9.7409 ct      1  lig      -0.178700
     21 C_0k         -2.9221  -46.5642    9.1578 cw      1  lig      -0.167900
     22 H_0l         -1.0643  -52.4685    7.1557 h0      1  lig       0.136100
     23 H_0m         -3.3107  -52.1386    6.1032 h6      1  lig       0.117800
     24 H_0n         -3.7870  -50.0270    4.8621 h7      1  lig       0.121400
     25 H_0o         -2.0525  -48.2620    4.6806 h8      1  lig       0.154000
     26 H_0p          0.3591  -47.1826    4.1860 h9      1  lig       0.001200
     27 H_0q          1.9571  -47.1197    4.8545 hb      1  lig       0.001200
     28 H_0r          0.8383  -45.1152    5.4100 hd      1  lig       0.049300
     29 H_0s          1.0193  -45.9535    6.9119 he      1  lig       0.049300
     30 H_0t         -1.5694  -46.2175    5.2579 hf      1  lig       0.030200
     31 H_0u         -1.2608  -44.7804    6.2555 hg      1  lig       0.030200
     32 H_0v         -3.6128  -45.5208    5.9804 hh      1  lig       0.074300
     33 H_0w         -2.1258  -46.9747    9.7432 hi      1  lig       0.160200
     34 N_0x          1.0006  -50.4682    6.9462 n0      1  lig      -0.421400
     35 H_0y          1.5289  -51.1452    7.4978 hj      1  lig       0.358400
     36 H_0z         -4.3285  -46.5246   10.7852 hk      1  lig       0.146400
     37 H_10         -6.1596  -45.5763    9.4591 hl      1  lig       0.113200
     38 C_11         -8.2961  -43.9825    5.1869 cA      1  lig      -0.114100
     39 C_12         -6.9685  -43.6324    4.8677 cB      1  lig      -0.201700
     40 C_13         -5.9075  -44.1038    5.6742 cC      1  lig      -0.075100
     41 C_14         -6.1471  -44.9439    6.7916 cD      1  lig       0.035800
     42 C_15         -7.4945  -45.2646    7.0984 cE      1  lig      -0.083700
     43 C_16         -8.5569  -44.7797    6.3153 cF      1  lig      -0.202900
     44 H_17         -9.1038  -43.6280    4.5606 hm      1  lig       0.125800
     45 H_18         -6.7448  -43.0106    4.0128 hq      1  lig       0.142000
     46 H_19         -4.8944  -43.8110    5.4066 hr      1  lig       0.114100
     47 H_1a         -7.7356  -45.9131    7.9203 ht      1  lig       0.115600
     48 H_1b         -9.5750  -45.0472    6.5536 hu      1  lig       0.140500
@<TRIPOS>BOND
     1     1     2    2
     2     2     3    1
     3     2     4    1
     4     4    11    2
     5     4    34    1
     6     5     6    1
     7     5    10    2
     8     5    34    1
     9     6     7    2
    10     6    22    1
    11     7     8    1
    12     7    23    1
    13     8     9    2
    14     8    24    1
    15     9    10    1
    16     9    25    1
    17    10    11    1
    18    11    12    1
    19    12    26    1
    20    12    27    1
    21    12    13    1
    22    13    14    1
    23    13    28    1
    24    13    29    1
    25    14    15    1
    26    14    30    1
    27    14    31    1
    28    15    16    1
    29    16    17    2
    30    16    21    1
    31    17    18    1
    32    17    32    1
    33    18    19    2
    34    18    41    1
    35    19    20    1
    36    19    37    1
    37    20    21    2
    38    20    36    1
    39    21    33    1
    40    34    35    1
    41    38    39    2
    42    38    43    1
    43    38    44    1
    44    39    40    1
    45    39    45    1
    46    40    41    2
    47    40    46    1
    48    41    42    1
    49    42    43    2
    50    42    47    1
    51    43    48    1
