@<TRIPOS>MOLECULE
lig
  48   51 0 0 0
SMALL
NO_CHARGES


@<TRIPOS>ATOM
      1 O_00          3.8280  -50.6234    7.4838 o0      1  lig      -0.777300
      2 C_01          3.3210  -49.6151    6.9243 c4      1  lig       0.810600
      3 O_02          3.9054  -48.5248    6.8176 o1      1  lig      -0.760500
      4 C_03          1.9393  -49.7707    6.3969 c5      1  lig      -0.028900
      5 C_04         -0.0209  -50.9269    6.3143 c6      1  lig       0.138600
      6 C_05         -1.0754  -51.8407    6.4953 c7      1  lig      -0.222100
      7 C_06         -2.3593  -51.5145    6.0248 c8      1  lig      -0.185800
      8 C_07         -2.5689  -50.3046    5.3500 c9      1  lig      -0.208400
      9 C_08         -1.5021  -49.4040    5.1503 cb      1  lig      -0.182800
     10 C_09         -0.2163  -49.6827    5.6368 ci      1  lig       0.037000
     11 C_0a          1.0640  -48.9793    5.6739 cj      1  lig      -0.079800
     12 C_0b          1.3228  -47.6243    5.1362 ck      1  lig      -0.187600
     13 C_0c          0.4437  -46.5592    5.8286 cm      1  lig       0.042500
     14 C_0d          0.1816  -46.7275    7.3595 cn      1  lig       0.047900
     15 O_0e         -0.4798  -45.6317    7.9896 o2      1  lig      -0.405400
     16 C_0f         -1.8076  -45.4558    7.6772 co      1  lig       0.314200
     17 C_0g         -2.8302  -45.7085    8.6264 cq      1  lig      -0.177400
     18 C_0h         -4.1835  -45.4281    8.3011 cr      1  lig      -0.183800
     19 C_0i         -4.5494  -44.9452    7.0122 cs      1  lig      -0.020500
     20 C_0j         -3.5003  -44.7379    6.0858 ct      1  lig      -0.148000
     21 C_0k         -2.1611  -44.9745    6.4195 cw      1  lig      -0.230300
     22 H_0l         -0.8704  -52.7535    7.0353 h0      1  lig       0.140200
     23 H_0m         -3.1578  -52.2073    6.1966 h6      1  lig       0.128900
     24 H_0n         -3.5590  -50.0501    5.0068 h7      1  lig       0.122800
     25 H_0o         -1.6958  -48.4565    4.6509 h8      1  lig       0.141300
     26 H_0p          1.1281  -47.6472    4.0542 h9      1  lig       0.075500
     27 H_0q          2.3865  -47.3967    5.2048 hb      1  lig       0.075500
     28 H_0r         -0.5469  -46.5763    5.3452 hd      1  lig       0.000200
     29 H_0s          0.8593  -45.5949    5.5863 he      1  lig       0.000200
     30 H_0t          1.1167  -46.8600    7.9082 hf      1  lig       0.112400
     31 H_0u         -0.4138  -47.6220    7.5773 hg      1  lig       0.112400
     32 H_0v         -2.5705  -46.1051    9.6013 hh      1  lig       0.144000
     33 H_0w         -1.3614  -44.7848    5.7081 hi      1  lig       0.138300
     34 N_0x          1.2913  -50.9433    6.7123 n0      1  lig      -0.382000
     35 H_0y          1.7986  -51.6652    7.2257 hj      1  lig       0.346400
     36 H_0z         -3.7247  -44.3925    5.0868 hk      1  lig       0.127700
     37 H_10         -4.9356  -45.6033    9.0596 hl      1  lig       0.149400
     38 C_11         -8.6255  -44.3363    5.6579 cA      1  lig      -0.115600
     39 C_12         -7.5720  -43.6313    5.0628 cB      1  lig      -0.197900
     40 C_13         -6.2570  -43.7913    5.5445 cC      1  lig      -0.099900
     41 C_14         -5.9622  -44.6926    6.6073 cD      1  lig       0.051700
     42 C_15         -7.0522  -45.3703    7.2070 cE      1  lig      -0.105000
     43 C_16         -8.3685  -45.1909    6.7365 cF      1  lig      -0.191400
     44 H_17         -9.6276  -44.2281    5.2749 hm      1  lig       0.121000
     45 H_18         -7.7574  -42.9771    4.2289 hq      1  lig       0.137300
     46 H_19         -5.4770  -43.2223    5.0608 hr      1  lig       0.116000
     47 H_1a         -6.8793  -46.0650    8.0204 ht      1  lig       0.119900
     48 H_1b         -9.1764  -45.7346    7.1984 hu      1  lig       0.138500
@<TRIPOS>BOND
     1     1     2    2
     2     2     3    1
     3     2     4    1
     4     4    11    2
     5     4    34    1
     6     5     6    1
     7     5    10    2
     8     5    34    1
     9     6     7    2
    10     6    22    1
    11     7     8    1
    12     7    23    1
    13     8     9    2
    14     8    24    1
    15     9    10    1
    16     9    25    1
    17    10    11    1
    18    11    12    1
    19    12    26    1
    20    12    27    1
    21    12    13    1
    22    13    14    1
    23    13    28    1
    24    13    29    1
    25    14    15    1
    26    14    30    1
    27    14    31    1
    28    15    16    1
    29    16    17    2
    30    16    21    1
    31    17    18    1
    32    17    32    1
    33    18    19    2
    34    18    37    1
    35    19    20    1
    36    19    41    1
    37    20    21    2
    38    20    36    1
    39    21    33    1
    40    34    35    1
    41    38    39    2
    42    38    43    1
    43    38    44    1
    44    39    40    1
    45    39    45    1
    46    40    41    2
    47    40    46    1
    48    41    42    1
    49    42    43    2
    50    42    47    1
    51    43    48    1
