@<TRIPOS>MOLECULE
lig
  49   52 0 0 0
SMALL
NO_CHARGES


@<TRIPOS>ATOM
      1 O_00          4.0796  -49.9641    6.0933 o0      1  lig      -0.792000
      2 C_01          3.2341  -49.1036    6.4140 c4      1  lig       0.817200
      3 O_02          3.5646  -47.9824    6.8520 o1      1  lig      -0.750300
      4 C_03          1.7941  -49.4291    6.2845 c5      1  lig      -0.010200
      5 C_04          0.0692  -50.8734    5.8701 c6      1  lig       0.152200
      6 C_05         -0.7526  -51.9804    5.5646 c7      1  lig      -0.245800
      7 C_06         -2.1510  -51.8509    5.6383 c8      1  lig      -0.160800
      8 C_07         -2.7100  -50.6161    6.0102 c9      1  lig      -0.239900
      9 C_08         -1.8819  -49.5164    6.3113 cb      1  lig      -0.172700
     10 C_09         -0.4706  -49.6138    6.2528 ci      1  lig       0.069400
     11 C_0a          0.6346  -48.7012    6.4799 cj      1  lig      -0.170800
     12 C_0b          0.5503  -47.2487    6.8757 ck      1  lig      -0.011400
     13 C_0c         -0.4937  -46.4439    6.0758 cm      1  lig      -0.023000
     14 C_0d         -1.4675  -45.6591    6.9570 cn      1  lig      -0.099200
     15 O_0e         -2.0460  -46.5551    7.8997 o2      1  lig      -0.278300
     16 C_0f         -3.1695  -46.1729    8.5970 co      1  lig       0.143100
     17 C_0g         -3.9070  -44.9994    8.3258 cq      1  lig      -0.097800
     18 C_0h         -5.0862  -44.7046    9.0367 cr      1  lig       0.121400
     19 C_0i         -5.5323  -45.5822   10.0518 cs      1  lig      -0.144400
     20 C_0j         -4.7880  -46.7393   10.3421 ct      1  lig      -0.231700
     21 C_0k         -3.6196  -47.0355    9.6144 cw      1  lig      -0.139400
     22 H_0l         -0.3074  -52.9198    5.2755 h0      1  lig       0.143000
     23 H_0m         -2.7968  -52.6896    5.4151 h6      1  lig       0.121300
     24 H_0n         -3.7866  -50.5028    6.0695 h7      1  lig       0.127400
     25 H_0o         -2.3475  -48.5823    6.5781 h8      1  lig       0.142600
     26 H_0p          1.5075  -46.7429    6.7351 h9      1  lig       0.044300
     27 H_0q          0.3789  -47.1839    7.9537 hb      1  lig       0.044300
     28 H_0r         -1.0773  -47.0996    5.4235 hd      1  lig       0.038600
     29 H_0s          0.0194  -45.7661    5.3980 he      1  lig       0.038600
     30 H_0t         -2.2151  -45.2222    6.2970 hf      1  lig       0.123800
     31 H_0u         -0.9701  -44.8474    7.4911 hg      1  lig       0.123800
     32 H_0v         -3.6263  -44.3407    7.5286 hh      1  lig       0.115300
     33 H_0w         -3.0603  -47.9329    9.8264 hi      1  lig       0.128300
     34 N_0x          1.4413  -50.7114    5.8907 n0      1  lig      -0.398800
     35 H_0y          2.1511  -51.4007    5.6695 hj      1  lig       0.355000
     36 H_0z         -5.1306  -47.4237   11.1122 hk      1  lig       0.164900
     37 H_10         -6.4481  -45.3764   10.5887 hl      1  lig       0.131300
     38 O_11         -5.8559  -43.6367    8.6703 o3      1  lig      -0.329000
     39 C_12         -7.7006  -44.6618    5.0827 cA      1  lig      -0.158700
     40 C_13         -8.3132  -44.9852    6.3148 cB      1  lig      -0.174800
     41 C_14         -7.7288  -44.5868    7.5197 cC      1  lig      -0.184600
     42 C_15         -6.5230  -43.8614    7.5003 cD      1  lig       0.309800
     43 C_16         -5.9538  -43.4664    6.2722 cE      1  lig      -0.187500
     44 C_17         -6.5349  -43.8779    5.0621 cF      1  lig      -0.159000
     45 H_18         -8.1027  -45.0222    4.1484 hm      1  lig       0.131200
     46 H_19         -9.2203  -45.5728    6.3260 hq      1  lig       0.154800
     47 H_1a         -8.1689  -44.8792    8.4685 hr      1  lig       0.137300
     48 H_1b         -5.0287  -42.9029    6.2496 ht      1  lig       0.134700
     49 H_1c         -6.0777  -43.6154    4.1209 hu      1  lig       0.146500
@<TRIPOS>BOND
     1     1     2    2
     2     2     3    1
     3     2     4    1
     4     4    11    2
     5     4    34    1
     6     5     6    1
     7     5    10    2
     8     5    34    1
     9     6     7    2
    10     6    22    1
    11     7     8    1
    12     7    23    1
    13     8     9    2
    14     8    24    1
    15     9    10    1
    16     9    25    1
    17    10    11    1
    18    11    12    1
    19    12    26    1
    20    12    27    1
    21    12    13    1
    22    13    14    1
    23    13    28    1
    24    13    29    1
    25    14    15    1
    26    14    30    1
    27    14    31    1
    28    15    16    1
    29    16    17    2
    30    16    21    1
    31    17    18    1
    32    17    32    1
    33    18    19    2
    34    18    38    1
    35    19    20    1
    36    19    37    1
    37    20    21    2
    38    20    36    1
    39    21    33    1
    40    34    35    1
    41    38    42    1
    42    39    40    2
    43    39    44    1
    44    39    45    1
    45    40    41    1
    46    40    46    1
    47    41    42    2
    48    41    47    1
    49    42    43    1
    50    43    44    2
    51    43    48    1
    52    44    49    1
