@<TRIPOS>MOLECULE
lig
  49   52 0 0 0
SMALL
NO_CHARGES


@<TRIPOS>ATOM
      1 O_00          3.6188  -50.0261    7.1261 o0      1  lig      -0.791100
      2 C_01          2.9664  -49.0185    6.7704 c4      1  lig       0.827600
      3 O_02          3.5028  -47.8881    6.7185 o1      1  lig      -0.759100
      4 C_03          1.5378  -49.1785    6.4066 c5      1  lig       0.000100
      5 C_04         -0.3286  -50.4688    6.1368 c6      1  lig       0.164800
      6 C_05         -1.2909  -51.4982    6.0796 c7      1  lig      -0.231600
      7 C_06         -2.6052  -51.1970    5.6648 c8      1  lig      -0.188500
      8 C_07         -2.9395  -49.8757    5.3061 c9      1  lig      -0.182300
      9 C_08         -1.9616  -48.8533    5.3588 cb      1  lig      -0.227800
     10 C_09         -0.6371  -49.1247    5.7873 ci      1  lig       0.035300
     11 C_0a          0.5443  -48.3227    5.9852 cj      1  lig      -0.108500
     12 C_0b          0.6195  -46.8348    5.7937 ck      1  lig       0.119400
     13 C_0c          0.6544  -46.0387    7.1131 cm      1  lig       0.017600
     14 C_0d         -0.2727  -46.5426    8.2488 cn      1  lig       0.057400
     15 O_0e         -1.1995  -45.5833    8.7170 o2      1  lig      -0.381100
     16 C_0f         -2.4514  -45.6189    8.1601 co      1  lig       0.318000
     17 C_0g         -3.5606  -45.8237    9.0088 cq      1  lig      -0.234200
     18 C_0h         -4.8673  -45.7979    8.4847 cr      1  lig      -0.167400
     19 C_0i         -5.0701  -45.5418    7.1156 cs      1  lig       0.170600
     20 C_0j         -3.9629  -45.3736    6.2631 ct      1  lig      -0.202000
     21 C_0k         -2.6590  -45.4011    6.7853 cw      1  lig      -0.220500
     22 H_0l         -1.0321  -52.5072    6.3509 h0      1  lig       0.141800
     23 H_0m         -3.3583  -51.9726    5.6232 h6      1  lig       0.127300
     24 H_0n         -3.9447  -49.6401    4.9833 h7      1  lig       0.117400
     25 H_0o         -2.2394  -47.8446    5.0911 h8      1  lig       0.148700
     26 H_0p         -0.2165  -46.4977    5.1782 h9      1  lig      -0.046500
     27 H_0q          1.5009  -46.5787    5.2024 hb      1  lig      -0.046500
     28 H_0r          0.4617  -44.9798    6.9165 hd      1  lig       0.034100
     29 H_0s          1.6838  -46.0610    7.4877 he      1  lig       0.034100
     30 H_0t          0.3637  -46.7558    9.1142 hf      1  lig       0.046700
     31 H_0u         -0.7804  -47.4835    8.0268 hg      1  lig       0.046700
     32 H_0v         -3.4052  -45.9777   10.0674 hh      1  lig       0.150100
     33 H_0w         -1.8256  -45.2075    6.1295 hi      1  lig       0.161600
     34 N_0x          1.0071  -50.4487    6.4916 n0      1  lig      -0.400900
     35 H_0y          1.5851  -51.2218    6.7936 hj      1  lig       0.348900
     36 H_0z         -4.1090  -45.1870    5.2114 hk      1  lig       0.163300
     37 H_10         -5.7131  -45.9475    9.1405 hl      1  lig       0.156300
     38 O_11         -6.3410  -45.4189    6.6163 o3      1  lig      -0.336600
     39 C_12         -7.7336  -41.4738    6.7170 cA      1  lig      -0.163300
     40 C_13         -7.0295  -41.9323    5.5886 cB      1  lig      -0.181000
     41 C_14         -6.5719  -43.2667    5.5411 cC      1  lig      -0.173200
     42 C_15         -6.8370  -44.1375    6.6183 cD      1  lig       0.295200
     43 C_16         -7.5850  -43.6840    7.7222 cE      1  lig      -0.186900
     44 C_17         -8.0381  -42.3539    7.7682 cF      1  lig      -0.159700
     45 H_18         -8.0407  -40.4397    6.7738 hm      1  lig       0.130800
     46 H_19         -6.8347  -41.2580    4.7659 hq      1  lig       0.157400
     47 H_1a         -6.0100  -43.6068    4.6861 hr      1  lig       0.144600
     48 H_1b         -7.7915  -44.3537    8.5460 ht      1  lig       0.128000
     49 H_1c         -8.5855  -42.0032    8.6387 hu      1  lig       0.144900
@<TRIPOS>BOND
     1     1     2    2
     2     2     3    1
     3     2     4    1
     4     4    11    2
     5     4    34    1
     6     5     6    1
     7     5    10    2
     8     5    34    1
     9     6     7    2
    10     6    22    1
    11     7     8    1
    12     7    23    1
    13     8     9    2
    14     8    24    1
    15     9    10    1
    16     9    25    1
    17    10    11    1
    18    11    12    1
    19    12    26    1
    20    12    27    1
    21    12    13    1
    22    13    14    1
    23    13    28    1
    24    13    29    1
    25    14    15    1
    26    14    30    1
    27    14    31    1
    28    15    16    1
    29    16    17    2
    30    16    21    1
    31    17    18    1
    32    17    32    1
    33    18    19    2
    34    18    37    1
    35    19    20    1
    36    19    38    1
    37    20    21    2
    38    20    36    1
    39    21    33    1
    40    34    35    1
    41    38    42    1
    42    39    40    2
    43    39    44    1
    44    39    45    1
    45    40    41    1
    46    40    46    1
    47    41    42    2
    48    41    47    1
    49    42    43    1
    50    43    44    2
    51    43    48    1
    52    44    49    1
