@<TRIPOS>MOLECULE
lig
  44   47 0 0 0
SMALL
NO_CHARGES


@<TRIPOS>ATOM
      1 O_00          3.6010  -50.1309    7.2173 o0      1  lig      -0.792800
      2 C_01          2.9795  -49.0944    6.8829 c4      1  lig       0.825400
      3 O_02          3.5582  -47.9830    6.8122 o1      1  lig      -0.756700
      4 C_03          1.5366  -49.2034    6.5537 c5      1  lig      -0.011500
      5 C_04         -0.3472  -50.4577    6.2991 c6      1  lig       0.160600
      6 C_05         -1.3179  -51.4749    6.2331 c7      1  lig      -0.236400
      7 C_06         -2.6289  -51.1468    5.8278 c8      1  lig      -0.184000
      8 C_07         -2.9455  -49.8148    5.4839 c9      1  lig      -0.211200
      9 C_08         -1.9618  -48.8114    5.5555 cb      1  lig      -0.179400
     10 C_09         -0.6358  -49.1065    5.9640 ci      1  lig       0.031900
     11 C_0a          0.5554  -48.3244    6.1538 cj      1  lig      -0.126500
     12 C_0b          0.6833  -46.8447    5.9557 ck      1  lig       0.064900
     13 C_0c          0.6911  -46.0461    7.2731 cm      1  lig      -0.005400
     14 C_0d         -0.5530  -46.2446    8.1393 cn      1  lig      -0.164400
     15 O_0e         -1.6886  -45.7642    7.4384 o2      1  lig      -0.199200
     16 C_0f         -2.9365  -45.9351    8.0039 co      1  lig       0.070100
     17 C_0g         -5.5641  -46.2439    9.0369 cq      1  lig      -0.259100
     18 C_0h         -4.4526  -46.6108    9.8135 cr      1  lig      -0.198200
     19 C_0i         -3.1512  -46.4560    9.3053 cs      1  lig      -0.139800
     20 H_0j         -1.0725  -52.4891    6.4965 h0      1  lig       0.139700
     21 H_0k         -3.4006  -51.9114    5.7850 h6      1  lig       0.126500
     22 H_0l         -3.9567  -49.5554    5.1726 h7      1  lig       0.124400
     23 H_0m         -2.2180  -47.7978    5.2884 h8      1  lig       0.152700
     24 H_0n         -0.1373  -46.4896    5.3358 h9      1  lig      -0.002200
     25 H_0o          1.5901  -46.6136    5.3924 hb      1  lig      -0.002200
     26 H_0p          0.8003  -44.9837    7.0497 hd      1  lig       0.037800
     27 H_0q          1.5657  -46.3279    7.8552 he      1  lig       0.037800
     28 H_0r         -0.4371  -45.6845    9.0679 hf      1  lig       0.120500
     29 H_0s         -0.6725  -47.3005    8.3938 hg      1  lig       0.120500
     30 H_0t         -2.3433  -46.7548    9.9541 hh      1  lig       0.121600
     31 C_0u         -5.3751  -45.7201    7.7432 ct      1  lig       0.114600
     32 C_0v         -4.0606  -45.5636    7.2263 cw      1  lig       0.130800
     33 C_0w         -3.8918  -45.0359    5.9226 cA      1  lig      -0.198200
     34 C_0x         -5.0075  -44.6755    5.1465 cB      1  lig      -0.146600
     35 C_0y         -6.3050  -44.8355    5.6606 cC      1  lig      -0.156300
     36 C_0z         -6.4926  -45.3504    6.9558 cD      1  lig      -0.207400
     37 H_10         -2.9091  -44.8987    5.5003 hi      1  lig       0.143100
     38 H_11         -4.8459  -44.2745    4.1548 hj      1  lig       0.132400
     39 H_12         -7.1620  -44.5617    5.0630 hk      1  lig       0.133200
     40 H_13         -7.4912  -45.4674    7.3450 hl      1  lig       0.133700
     41 H_14         -4.5861  -47.0164   10.8082 hm      1  lig       0.158500
     42 H_15         -6.5536  -46.3721    9.4430 hq      1  lig       0.143300
     43 N_16          0.9870  -50.4703    6.6481 n0      1  lig      -0.395700
     44 H_17          1.5565  -51.2517    6.9442 hr      1  lig       0.349200
@<TRIPOS>BOND
     1     1     2    2
     2     2     3    1
     3     2     4    1
     4     4    11    2
     5     4    43    1
     6     5     6    1
     7     5    10    2
     8     5    43    1
     9     6     7    2
    10     6    20    1
    11     7     8    1
    12     7    21    1
    13     8     9    2
    14     8    22    1
    15     9    10    1
    16     9    23    1
    17    10    11    1
    18    11    12    1
    19    12    24    1
    20    12    25    1
    21    12    13    1
    22    13    14    1
    23    13    26    1
    24    13    27    1
    25    14    15    1
    26    14    28    1
    27    14    29    1
    28    15    16    1
    29    16    19    2
    30    16    32    1
    31    17    18    2
    32    17    31    1
    33    17    42    1
    34    18    19    1
    35    18    41    1
    36    19    30    1
    37    31    32    2
    38    31    36    1
    39    32    33    1
    40    33    34    2
    41    33    37    1
    42    34    35    1
    43    34    38    1
    44    35    36    2
    45    35    39    1
    46    36    40    1
    47    43    44    1
