@<TRIPOS>MOLECULE
lig
  44   47 0 0 0
SMALL
NO_CHARGES


@<TRIPOS>ATOM
      1 O_00          3.5643  -47.8843    6.3334 o0      1  lig      -0.757200
      2 C_01          2.9990  -48.9049    6.7868 c4      1  lig       0.828800
      3 O_02          3.5887  -49.7095    7.5467 o1      1  lig      -0.793200
      4 C_03          1.5874  -49.1583    6.4235 c5      1  lig      -0.019200
      5 C_04         -0.3136  -50.4258    6.4859 c6      1  lig       0.153400
      6 C_05         -1.3036  -51.4031    6.6994 c7      1  lig      -0.242000
      7 C_06         -2.5845  -51.2164    6.1482 c8      1  lig      -0.171200
      8 C_07         -2.8632  -50.0626    5.3949 c9      1  lig      -0.222200
      9 C_08         -1.8627  -49.0917    5.1852 cb      1  lig      -0.178400
     10 C_09         -0.5602  -49.2479    5.7208 ci      1  lig       0.039500
     11 C_0a          0.6473  -48.4594    5.6954 cj      1  lig      -0.123600
     12 C_0b          0.8265  -47.1229    5.0263 ck      1  lig       0.069700
     13 C_0c          0.8821  -45.9477    6.0225 cm      1  lig      -0.021100
     14 C_0d         -0.3512  -45.8393    6.9293 cn      1  lig      -0.134900
     15 O_0e         -1.4585  -45.3868    6.1598 o2      1  lig      -0.254500
     16 C_0f         -2.6734  -45.2518    6.7942 co      1  lig       0.174700
     17 C_0g         -4.9576  -44.3709    6.6682 cq      1  lig      -0.252700
     18 C_0h         -3.6845  -44.5617    6.0974 cr      1  lig      -0.136600
     19 H_0i         -1.0808  -52.2831    7.2830 h0      1  lig       0.141800
     20 H_0j         -3.3514  -51.9594    6.3077 h6      1  lig       0.124200
     21 H_0k         -3.8475  -49.9191    4.9764 h7      1  lig       0.125100
     22 H_0l         -2.0911  -48.2065    4.6076 h8      1  lig       0.156300
     23 H_0m          0.0168  -46.9558    4.3169 h9      1  lig      -0.004000
     24 H_0n          1.7408  -47.1287    4.4309 hb      1  lig      -0.004000
     25 H_0o          1.0222  -45.0114    5.4834 hd      1  lig       0.042100
     26 H_0p          1.7641  -46.0601    6.6515 he      1  lig       0.042100
     27 H_0q         -0.1558  -45.1260    7.7294 hf      1  lig       0.117500
     28 H_0r         -0.5515  -46.8060    7.3926 hg      1  lig       0.117500
     29 H_0s         -3.4773  -44.1655    5.1146 hh      1  lig       0.128600
     30 C_0t         -2.9615  -45.7676    8.0827 cs      1  lig      -0.217900
     31 H_0u         -5.7169  -43.8324    6.1167 hi      1  lig       0.155500
     32 C_0v         -4.2421  -45.6033    8.6496 ct      1  lig       0.070600
     33 C_0w         -5.2428  -44.8900    7.9458 cw      1  lig       0.131800
     34 C_0x         -6.5177  -44.7121    8.5223 cA      1  lig      -0.198100
     35 C_0y         -6.8021  -45.2571    9.7910 cB      1  lig      -0.169200
     36 C_0z         -5.8102  -45.9817   10.4853 cC      1  lig      -0.133100
     37 C_10         -4.5321  -46.1533    9.9158 cD      1  lig      -0.209200
     38 H_11         -7.2854  -44.1649    7.9948 hj      1  lig       0.133800
     39 H_12         -7.7781  -45.1176   10.2340 hk      1  lig       0.130700
     40 H_13         -6.0317  -46.4019   11.4577 hl      1  lig       0.129100
     41 H_14         -3.7793  -46.7042   10.4587 hm      1  lig       0.147200
     42 H_15         -2.2210  -46.3075    8.6524 hq      1  lig       0.126000
     43 N_16          1.0036  -50.3231    6.8929 n0      1  lig      -0.393600
     44 H_17          1.5367  -50.9666    7.4620 hr      1  lig       0.349900
@<TRIPOS>BOND
     1     1     2    2
     2     2     3    1
     3     2     4    1
     4     4    11    2
     5     4    43    1
     6     5     6    1
     7     5    10    2
     8     5    43    1
     9     6     7    2
    10     6    19    1
    11     7     8    1
    12     7    20    1
    13     8     9    2
    14     8    21    1
    15     9    10    1
    16     9    22    1
    17    10    11    1
    18    11    12    1
    19    12    23    1
    20    12    24    1
    21    12    13    1
    22    13    14    1
    23    13    25    1
    24    13    26    1
    25    14    15    1
    26    14    27    1
    27    14    28    1
    28    15    16    1
    29    16    18    1
    30    16    30    2
    31    17    18    2
    32    17    31    1
    33    17    33    1
    34    18    29    1
    35    30    32    1
    36    30    42    1
    37    32    33    2
    38    32    37    1
    39    33    34    1
    40    34    35    2
    41    34    38    1
    42    35    36    1
    43    35    39    1
    44    36    37    2
    45    36    40    1
    46    37    41    1
    47    43    44    1
