@<TRIPOS>MOLECULE
lig
  44   47 0 0 0
SMALL
NO_CHARGES


@<TRIPOS>ATOM
      1 O_00          3.5638  -47.8398    6.3294 o0      1  lig      -0.755700
      2 C_01          3.0055  -48.8795    6.7362 c4      1  lig       0.820400
      3 O_02          3.6001  -49.7033    7.4706 o1      1  lig      -0.789300
      4 C_03          1.6002  -49.1348    6.3550 c5      1  lig      -0.009300
      5 C_04         -0.2707  -50.4496    6.3395 c6      1  lig       0.139800
      6 C_05         -1.2446  -51.4534    6.4978 c7      1  lig      -0.226300
      7 C_06         -2.5290  -51.2642    5.9573 c8      1  lig      -0.176900
      8 C_07         -2.8264  -50.0751    5.2634 c9      1  lig      -0.219200
      9 C_08         -1.8457  -49.0732    5.1109 cb      1  lig      -0.174000
     10 C_09         -0.5465  -49.2371    5.6460 ci      1  lig       0.025200
     11 C_0a          0.6398  -48.4122    5.6803 cj      1  lig      -0.119500
     12 C_0b          0.7658  -47.0204    5.1109 ck      1  lig       0.084200
     13 C_0c          0.8382  -45.9174    6.1894 cm      1  lig      -0.004300
     14 C_0d         -0.2514  -46.0044    7.2636 cn      1  lig      -0.189300
     15 O_0e         -1.5116  -45.6953    6.6849 o2      1  lig      -0.163200
     16 C_0f         -2.6160  -45.6893    7.5101 co      1  lig       0.072900
     17 C_0g         -4.9357  -45.6105    9.1489 cq      1  lig      -0.077200
     18 C_0h         -3.7951  -46.3194    9.5617 cr      1  lig      -0.130200
     19 C_0i         -2.6431  -46.3574    8.7572 cs      1  lig      -0.183200
     20 H_0j         -1.0077  -52.3586    7.0271 h0      1  lig       0.139200
     21 H_0k         -3.2862  -52.0252    6.0738 h6      1  lig       0.125700
     22 H_0l         -3.8126  -49.9204    4.8501 h7      1  lig       0.128200
     23 H_0m         -2.0817  -48.1638    4.5782 h8      1  lig       0.150800
     24 H_0n         -0.0880  -46.8183    4.4620 h9      1  lig      -0.010100
     25 H_0o          1.6452  -46.9604    4.4630 hb      1  lig      -0.010100
     26 H_0p          0.8127  -44.9396    5.7098 hd      1  lig       0.037700
     27 H_0q          1.8058  -45.9783    6.6859 he      1  lig       0.037700
     28 H_0r         -0.0397  -45.2807    8.0530 hf      1  lig       0.127800
     29 H_0s         -0.2389  -46.9911    7.7216 hg      1  lig       0.127800
     30 H_0t         -1.8003  -46.9189    9.1152 hh      1  lig       0.139000
     31 C_0u         -4.9328  -44.9377    7.9019 ct      1  lig       0.160100
     32 C_0v         -3.7720  -44.9848    7.0812 cw      1  lig       0.064500
     33 C_0w         -3.7720  -44.3169    5.8386 cA      1  lig      -0.175400
     34 C_0x         -4.9088  -43.6148    5.4042 cB      1  lig      -0.145700
     35 C_0y         -6.0601  -43.5677    6.2105 cC      1  lig      -0.165500
     36 C_0z         -6.0722  -44.2246    7.4561 cD      1  lig      -0.188500
     37 H_10         -2.9025  -44.3383    5.2009 hi      1  lig       0.141900
     38 H_11         -4.9003  -43.1136    4.4481 hj      1  lig       0.138700
     39 H_12         -6.9301  -43.0279    5.8753 hk      1  lig       0.144000
     40 H_13         -6.9613  -44.1701    8.0625 hl      1  lig       0.137900
     41 H_14         -3.7969  -46.8284   10.5131 hm      1  lig       0.160300
     42 Cl15         -6.3143  -45.5879   10.1970 a0      1  lig      -0.152000
     43 N_16          1.0415  -50.3407    6.7514 n0      1  lig      -0.387400
     44 H_17          1.5788  -51.0058    7.2849 hq      1  lig       0.348500
@<TRIPOS>BOND
     1     1     2    2
     2     2     3    1
     3     2     4    1
     4     4    11    2
     5     4    43    1
     6     5     6    1
     7     5    10    2
     8     5    43    1
     9     6     7    2
    10     6    20    1
    11     7     8    1
    12     7    21    1
    13     8     9    2
    14     8    22    1
    15     9    10    1
    16     9    23    1
    17    10    11    1
    18    11    12    1
    19    12    24    1
    20    12    25    1
    21    12    13    1
    22    13    14    1
    23    13    26    1
    24    13    27    1
    25    14    15    1
    26    14    28    1
    27    14    29    1
    28    15    16    1
    29    16    19    2
    30    16    32    1
    31    17    18    2
    32    17    31    1
    33    17    42    1
    34    18    19    1
    35    18    41    1
    36    19    30    1
    37    31    32    2
    38    31    36    1
    39    32    33    1
    40    33    34    2
    41    33    37    1
    42    34    35    1
    43    34    38    1
    44    35    36    2
    45    35    39    1
    46    36    40    1
    47    43    44    1
