@<TRIPOS>MOLECULE
lig
  48   51 0 0 0
SMALL
NO_CHARGES


@<TRIPOS>ATOM
      1 O_00          3.4855  -49.9426    7.0276 o0      1  lig      -0.794300
      2 C_01          2.8121  -48.9262    6.7501 c4      1  lig       0.835300
      3 O_02          3.3387  -47.7912    6.7250 o1      1  lig      -0.760900
      4 C_03          1.3656  -49.0984    6.4616 c5      1  lig      -0.023900
      5 C_04         -0.4570  -50.4272    6.2251 c6      1  lig       0.144000
      6 C_05         -1.3771  -51.4933    6.1604 c7      1  lig      -0.239000
      7 C_06         -2.7279  -51.2247    5.8404 c8      1  lig      -0.165100
      8 C_07         -3.1252  -49.8960    5.5731 c9      1  lig      -0.244500
      9 C_08         -2.1902  -48.8426    5.6378 cb      1  lig      -0.153000
     10 C_09         -0.8351  -49.0777    5.9738 ci      1  lig       0.040900
     11 C_0a          0.3360  -48.2451    6.1279 cj      1  lig      -0.121200
     12 C_0b          0.4043  -46.7612    5.9387 ck      1  lig       0.071200
     13 C_0c          0.3098  -45.9594    7.2517 cm      1  lig      -0.011600
     14 C_0d         -1.0292  -46.0969    7.9995 cn      1  lig      -0.199700
     15 O_0e         -2.0793  -45.5604    7.1983 o2      1  lig      -0.154800
     16 C_0f         -3.3471  -45.4671    7.7380 co      1  lig       0.056200
     17 C_0g         -5.9796  -45.1890    8.7400 cq      1  lig      -0.226600
     18 C_0h         -4.9970  -45.8216    9.5182 cr      1  lig      -0.207700
     19 C_0i         -3.6869  -45.9651    9.0246 cs      1  lig      -0.154000
     20 H_0j         -1.0554  -52.5071    6.3622 h0      1  lig       0.140800
     21 H_0k         -3.4470  -52.0325    5.7976 h6      1  lig       0.123400
     22 H_0l         -4.1577  -49.6923    5.3194 h7      1  lig       0.131100
     23 H_0m         -2.5225  -47.8288    5.4348 h8      1  lig       0.144500
     24 H_0n         -0.3771  -46.4300    5.2566 h9      1  lig      -0.006600
     25 H_0o          1.3389  -46.5012    5.4412 hb      1  lig      -0.006600
     26 H_0p          0.4800  -44.9035    7.0314 hd      1  lig       0.041400
     27 H_0q          1.1237  -46.2551    7.9089 he      1  lig       0.041400
     28 H_0r         -0.9544  -45.5410    8.9393 hf      1  lig       0.126000
     29 H_0s         -1.2201  -47.1415    8.2503 hg      1  lig       0.126000
     30 H_0t         -2.9571  -46.4543    9.6540 hh      1  lig       0.126200
     31 C_0u         -5.6697  -44.7035    7.4607 ct      1  lig       0.001900
     32 C_0v         -4.3510  -44.8400    6.9519 cw      1  lig       0.004800
     33 C_0w         -4.0014  -44.3412    5.5513 cA      1  lig       0.053300
     34 C_0x         -5.0175  -43.3336    4.9872 cB      1  lig       0.024400
     35 C_0y         -6.4494  -43.8370    5.1794 cC      1  lig      -0.001300
     36 C_0z         -6.7716  -44.0165    6.6646 cD      1  lig       0.017800
     37 H_10         -5.2476  -46.1918   10.5005 hi      1  lig       0.159400
     38 H_11         -6.9807  -45.0767    9.1327 hj      1  lig       0.128700
     39 H_12         -3.9511  -45.2097    4.8939 hk      1  lig      -0.006000
     40 H_13         -3.0095  -43.8903    5.5414 hl      1  lig      -0.006000
     41 H_14         -4.8323  -43.1458    3.9293 hm      1  lig      -0.013700
     42 H_15         -4.9028  -42.3788    5.4995 hq      1  lig      -0.013700
     43 H_16         -6.5591  -44.7912    4.6611 hr      1  lig      -0.001400
     44 H_17         -7.1629  -43.1518    4.7184 ht      1  lig      -0.001400
     45 H_18         -6.9448  -43.0401    7.1156 hu      1  lig       0.007700
     46 H_19         -7.7010  -44.5764    6.7714 hv      1  lig       0.007700
     47 N_1a          0.8791  -50.3882    6.5090 n0      1  lig      -0.390100
     48 H_1b          1.5076  -51.1532    6.7164 hy      1  lig       0.349000
@<TRIPOS>BOND
     1     1     2    2
     2     2     3    1
     3     2     4    1
     4     4    11    2
     5     4    47    1
     6     5     6    1
     7     5    10    2
     8     5    47    1
     9     6     7    2
    10     6    20    1
    11     7     8    1
    12     7    21    1
    13     8     9    2
    14     8    22    1
    15     9    10    1
    16     9    23    1
    17    10    11    1
    18    11    12    1
    19    12    24    1
    20    12    25    1
    21    12    13    1
    22    13    14    1
    23    13    26    1
    24    13    27    1
    25    14    15    1
    26    14    28    1
    27    14    29    1
    28    15    16    1
    29    16    19    2
    30    16    32    1
    31    17    18    2
    32    17    31    1
    33    17    38    1
    34    18    19    1
    35    18    37    1
    36    19    30    1
    37    31    32    2
    38    31    36    1
    39    32    33    1
    40    33    34    1
    41    33    39    1
    42    33    40    1
    43    34    35    1
    44    34    41    1
    45    34    42    1
    46    35    36    1
    47    35    43    1
    48    35    44    1
    49    36    45    1
    50    36    46    1
    51    47    48    1
