@<TRIPOS>MOLECULE
lig
  45   48 0 0 0
SMALL
NO_CHARGES


@<TRIPOS>ATOM
      1 O_00          3.5634  -47.8222    6.3169 o0      1  lig      -0.756400
      2 C_01          3.0096  -48.8325    6.8076 c4      1  lig       0.832800
      3 O_02          3.6259  -49.6047    7.5794 o1      1  lig      -0.795600
      4 C_03          1.5978  -49.1187    6.4846 c5      1  lig      -0.024000
      5 C_04         -0.2687  -50.4180    6.6086 c6      1  lig       0.140400
      6 C_05         -1.2477  -51.4049    6.8705 c7      1  lig      -0.248500
      7 C_06         -2.5242  -51.2927    6.2695 c8      1  lig      -0.154200
      8 C_07         -2.8029  -50.2046    5.4177 c9      1  lig      -0.240800
      9 C_08         -1.8160  -49.2240    5.1702 cb      1  lig      -0.164400
     10 C_09         -0.5328  -49.3025    5.7596 ci      1  lig       0.049000
     11 C_0a          0.6485  -48.4818    5.7196 cj      1  lig      -0.120000
     12 C_0b          0.7914  -47.1830    4.9813 ck      1  lig       0.055400
     13 C_0c          0.8856  -45.9530    5.9079 cm      1  lig      -0.011900
     14 C_0d         -0.3043  -45.7921    6.8650 cn      1  lig      -0.137400
     15 O_0e         -1.4475  -45.4189    6.1063 o2      1  lig      -0.264500
     16 C_0f         -2.6442  -45.2630    6.7712 co      1  lig       0.165300
     17 C_0g         -4.8922  -44.2571    6.6999 cq      1  lig      -0.254700
     18 C_0h         -3.6327  -44.4906    6.1102 cr      1  lig      -0.167700
     19 H_0i         -1.0201  -52.2377    7.5251 h0      1  lig       0.143100
     20 H_0j         -3.2785  -52.0456    6.4598 h6      1  lig       0.119500
     21 H_0k         -3.7773  -50.1193    4.9545 h7      1  lig       0.128000
     22 H_0l         -2.0556  -48.3850    4.5239 h8      1  lig       0.153400
     23 H_0m         -0.0599  -47.0510    4.3183 h9      1  lig      -0.001500
     24 H_0n          1.6673  -47.2161    4.3353 hb      1  lig      -0.001500
     25 H_0o          0.9959  -45.0491    5.3038 hd      1  lig       0.040000
     26 H_0p          1.7930  -46.0181    6.5046 he      1  lig       0.040000
     27 H_0q         -0.0852  -45.0058    7.5899 hf      1  lig       0.117300
     28 H_0r         -0.4512  -46.7216    7.4182 hg      1  lig       0.117300
     29 H_0s         -3.4149  -44.0650    5.1406 hh      1  lig       0.131200
     30 C_0t         -2.9379  -45.8450    8.0360 cs      1  lig      -0.197900
     31 H_0u         -5.6352  -43.6555    6.1979 hi      1  lig       0.157400
     32 H_0v         -2.2387  -46.4637    8.5728 hj      1  lig       0.120400
     33 N_0w          1.0287  -50.2522    7.0341 n0      1  lig      -0.389900
     34 C_0x         -6.2177  -45.7257    9.9160 ct      1  lig      -0.051300
     35 C_0y         -4.7395  -46.1893    9.8810 cw      1  lig       0.032800
     36 C_0z         -4.2087  -45.6259    8.5912 cA      1  lig      -0.012100
     37 C_10         -5.1536  -44.8350    7.9542 cB      1  lig       0.012300
     38 C_11         -6.4175  -44.7160    8.7624 cC      1  lig       0.036500
     39 H_12         -6.5036  -43.6968    9.1386 hk      1  lig       0.000100
     40 H_13         -7.2948  -44.9463    8.1570 hl      1  lig       0.000100
     41 H_14         -6.5029  -45.3113   10.8847 hm      1  lig       0.012500
     42 H_15         -6.8566  -46.5933    9.7373 hq      1  lig       0.012500
     43 H_16         -4.6544  -47.2763    9.8998 hr      1  lig       0.013100
     44 H_17         -4.1716  -45.7891   10.7160 ht      1  lig       0.013100
     45 H_18          1.5629  -50.8425    7.6515 hu      1  lig       0.350800
@<TRIPOS>BOND
     1     1     2    2
     2     2     3    1
     3     2     4    1
     4     4    11    2
     5     4    33    1
     6     5     6    1
     7     5    10    2
     8     5    33    1
     9     6     7    2
    10     6    19    1
    11     7     8    1
    12     7    20    1
    13     8     9    2
    14     8    21    1
    15     9    10    1
    16     9    22    1
    17    10    11    1
    18    11    12    1
    19    12    23    1
    20    12    24    1
    21    12    13    1
    22    13    14    1
    23    13    25    1
    24    13    26    1
    25    14    15    1
    26    14    27    1
    27    14    28    1
    28    15    16    1
    29    16    18    1
    30    16    30    2
    31    17    18    2
    32    17    31    1
    33    17    37    1
    34    18    29    1
    35    30    32    1
    36    30    36    1
    37    33    45    1
    38    34    35    1
    39    34    38    1
    40    34    41    1
    41    34    42    1
    42    35    36    1
    43    35    43    1
    44    35    44    1
    45    36    37    2
    46    37    38    1
    47    38    39    1
    48    38    40    1
