@<TRIPOS>MOLECULE
lig
  43   46 0 0 0
SMALL
NO_CHARGES


@<TRIPOS>ATOM
      1 O_00          3.8686  -50.1190    7.0932 o0      1  lig      -0.793200
      2 C_01          3.1190  -49.1589    6.7946 c4      1  lig       0.824100
      3 O_02          3.5527  -47.9843    6.7208 o1      1  lig      -0.751100
      4 C_03          1.6856  -49.4320    6.5286 c5      1  lig      -0.009600
      5 C_04         -0.0809  -50.8763    6.3515 c6      1  lig       0.135000
      6 C_05         -0.9511  -51.9836    6.3183 c7      1  lig      -0.234100
      7 C_06         -2.3175  -51.7852    6.0387 c8      1  lig      -0.170100
      8 C_07         -2.8023  -50.4802    5.8114 c9      1  lig      -0.220700
      9 C_08         -1.9249  -49.3776    5.8612 cb      1  lig      -0.192200
     10 C_09         -0.5419  -49.5476    6.1269 ci      1  lig       0.056700
     11 C_0a          0.5818  -48.6544    6.2494 cj      1  lig      -0.181300
     12 C_0b          0.5070  -47.1632    6.1421 ck      1  lig      -0.008200
     13 C_0c          0.1148  -46.5415    7.4889 cm      1  lig       0.035600
     14 C_0d         -0.4072  -45.1038    7.3461 cn      1  lig      -0.042200
     15 O_0e         -1.5468  -45.0525    6.4949 o2      1  lig      -0.403000
     16 C_0f         -2.8067  -45.2692    7.0109 co      1  lig       0.342400
     17 C_0g         -5.2211  -45.1826    6.5885 cq      1  lig      -0.309700
     18 C_0h         -3.8922  -45.0084    6.1504 cr      1  lig      -0.180700
     19 H_0i         -0.5745  -52.9772    6.4996 h0      1  lig       0.139900
     20 H_0j         -2.9954  -52.6270    6.0061 h6      1  lig       0.123500
     21 H_0k         -3.8516  -50.3275    5.5997 h7      1  lig       0.125300
     22 H_0l         -2.3147  -48.3846    5.6922 h8      1  lig       0.150500
     23 H_0m         -0.2249  -46.8991    5.3792 h9      1  lig       0.049500
     24 H_0n          1.4539  -46.7474    5.7898 hb      1  lig       0.049500
     25 H_0o          0.9728  -46.5654    8.1598 hd      1  lig       0.017400
     26 H_0p         -0.6489  -47.1566    7.9613 he      1  lig       0.017400
     27 H_0q          0.3680  -44.4929    6.8836 hf      1  lig       0.101600
     28 H_0r         -0.6002  -44.6497    8.3160 hg      1  lig       0.101600
     29 H_0s         -3.7003  -44.6602    5.1441 hh      1  lig       0.152900
     30 C_0t         -3.0729  -45.7272    8.3225 cs      1  lig      -0.313200
     31 H_0u         -6.0370  -44.9748    5.9117 hi      1  lig       0.168800
     32 C_0v         -4.4026  -45.9169    8.7511 ct      1  lig      -0.068300
     33 C_0w         -5.5002  -45.6402    7.8903 cw      1  lig       0.510600
     34 N_0x         -6.7807  -45.8063    8.2927 n0      1  lig      -0.629200
     35 C_0y         -7.0196  -46.2339    9.5524 cA      1  lig       0.289400
     36 C_0z         -5.9967  -46.5463   10.4671 cB      1  lig      -0.312900
     37 C_10         -4.6620  -46.3937   10.0496 cC      1  lig      -0.055400
     38 H_11         -8.0581  -46.3378    9.8379 hj      1  lig       0.058300
     39 H_12         -6.2280  -46.8986   11.4632 hk      1  lig       0.141400
     40 H_13         -3.8505  -46.6326   10.7173 hl      1  lig       0.143000
     41 H_14         -2.2731  -45.9438    9.0132 hm      1  lig       0.165600
     42 N_15          1.2731  -50.7546    6.5922 ng      1  lig      -0.368400
     43 H_16          1.9414  -51.4821    6.8006 hq      1  lig       0.343500
@<TRIPOS>BOND
     1     1     2    2
     2     2     3    1
     3     2     4    1
     4     4    11    2
     5     4    42    1
     6     5     6    1
     7     5    10    2
     8     5    42    1
     9     6     7    2
    10     6    19    1
    11     7     8    1
    12     7    20    1
    13     8     9    2
    14     8    21    1
    15     9    10    1
    16     9    22    1
    17    10    11    1
    18    11    12    1
    19    12    23    1
    20    12    24    1
    21    12    13    1
    22    13    14    1
    23    13    25    1
    24    13    26    1
    25    14    15    1
    26    14    27    1
    27    14    28    1
    28    15    16    1
    29    16    18    1
    30    16    30    2
    31    17    18    2
    32    17    31    1
    33    17    33    1
    34    18    29    1
    35    30    32    1
    36    30    41    1
    37    32    33    2
    38    32    37    1
    39    33    34    1
    40    34    35    2
    41    35    36    1
    42    35    38    1
    43    36    37    2
    44    36    39    1
    45    37    40    1
    46    42    43    1
