@<TRIPOS>MOLECULE
lig
  42   45 0 0 0
SMALL
NO_CHARGES


@<TRIPOS>ATOM
      1 O_00          3.5962  -50.2382    7.2860 o0      1  lig      -0.795400
      2 C_01          2.9915  -49.1832    6.9785 c4      1  lig       0.830000
      3 O_02          3.5468  -48.0563    6.9856 o1      1  lig      -0.755500
      4 C_03          1.5667  -49.2814    6.6034 c5      1  lig      -0.023400
      5 C_04         -0.3493  -50.4961    6.2933 c6      1  lig       0.130500
      6 C_05         -1.3483  -51.4866    6.2008 c7      1  lig      -0.234700
      7 C_06         -2.6508  -51.1171    5.7985 c8      1  lig      -0.175600
      8 C_07         -2.9320  -49.7715    5.4886 c9      1  lig      -0.209300
      9 C_08         -1.9224  -48.7928    5.5781 cb      1  lig      -0.172500
     10 C_09         -0.6057  -49.1301    5.9783 ci      1  lig       0.041200
     11 C_0a          0.6128  -48.3833    6.1734 cj      1  lig      -0.105200
     12 C_0b          0.8068  -46.9172    5.9622 ck      1  lig       0.027900
     13 C_0c          0.7034  -46.1229    7.2813 cm      1  lig      -0.016800
     14 C_0d         -0.7224  -46.0877    7.8568 cn      1  lig      -0.067600
     15 O_0e         -1.5391  -45.3745    6.9378 o2      1  lig      -0.300900
     16 C_0f         -2.8810  -45.1822    7.1989 co      1  lig       0.081300
     17 C_0g         -5.6349  -44.5517    7.4221 cq      1  lig      -0.230400
     18 C_0h         -4.8882  -44.0528    6.3462 cr      1  lig      -0.238300
     19 C_0i         -3.5272  -44.3675    6.2431 cs      1  lig      -0.153800
     20 H_0j         -1.1221  -52.5127    6.4406 h0      1  lig       0.141100
     21 H_0k         -3.4286  -51.8679    5.7409 h6      1  lig       0.122300
     22 H_0l         -3.9393  -49.4941    5.1917 h7      1  lig       0.116600
     23 H_0m         -2.1655  -47.7639    5.3407 h8      1  lig       0.146400
     24 H_0n          0.0812  -46.5361    5.2444 h9      1  lig       0.006200
     25 H_0o          1.7755  -46.7461    5.5008 hb      1  lig       0.006200
     26 H_0p          1.0481  -45.1065    7.1031 hd      1  lig       0.043000
     27 H_0q          1.3929  -46.5497    8.0104 he      1  lig       0.043000
     28 H_0r         -0.7254  -45.5871    8.8270 hf      1  lig       0.090200
     29 H_0s         -1.0854  -47.1044    7.9921 hg      1  lig       0.090200
     30 H_0t         -2.9494  -43.9742    5.4116 hh      1  lig       0.132800
     31 H_0u         -5.3617  -43.4242    5.5988 hi      1  lig       0.157700
     32 H_0v         -6.6821  -44.3169    7.5187 hj      1  lig       0.142000
     33 N_0w          0.9807  -50.5349    6.6696 n0      1  lig      -0.380900
     34 H_0x          1.5294  -51.3275    6.9752 hk      1  lig       0.348000
     35 C_0y         -4.5301  -46.7432   10.1164 ct      1  lig      -0.158300
     36 N_0z         -5.5194  -46.0063    9.4887 ng      1  lig      -0.325600
     37 C_10         -5.0107  -45.3807    8.3736 cw      1  lig       0.075800
     38 C_11         -3.6231  -45.7297    8.3012 cA      1  lig       0.175700
     39 C_12         -3.3547  -46.5895    9.4315 cB      1  lig      -0.340600
     40 H_13         -6.4801  -45.9639    9.8176 hl      1  lig       0.330400
     41 H_14         -2.4128  -47.0461    9.6996 hm      1  lig       0.221300
     42 H_15         -4.7507  -47.3116   11.0075 hq      1  lig       0.185000
@<TRIPOS>BOND
     1     1     2    2
     2     2     3    1
     3     2     4    1
     4     4    11    2
     5     4    33    1
     6     5     6    1
     7     5    10    2
     8     5    33    1
     9     6     7    2
    10     6    20    1
    11     7     8    1
    12     7    21    1
    13     8     9    2
    14     8    22    1
    15     9    10    1
    16     9    23    1
    17    10    11    1
    18    11    12    1
    19    12    24    1
    20    12    25    1
    21    12    13    1
    22    13    14    1
    23    13    26    1
    24    13    27    1
    25    14    15    1
    26    14    28    1
    27    14    29    1
    28    15    16    1
    29    16    19    2
    30    16    38    1
    31    17    18    2
    32    17    32    1
    33    17    37    1
    34    18    19    1
    35    18    31    1
    36    19    30    1
    37    33    34    1
    38    35    36    1
    39    35    39    2
    40    35    42    1
    41    36    37    1
    42    36    40    1
    43    37    38    2
    44    38    39    1
    45    39    41    1
