@<TRIPOS>MOLECULE
lig
  41   43 0 0 0
SMALL
NO_CHARGES


@<TRIPOS>ATOM
      1 O_00          3.7483  -50.0541    7.1170 o0      1  lig      -0.795700
      2 C_01          3.0006  -49.1057    6.7954 c4      1  lig       0.836700
      3 O_02          3.4290  -47.9343    6.7113 o1      1  lig      -0.750400
      4 C_03          1.5768  -49.4207    6.4879 c5      1  lig      -0.008000
      5 C_04         -0.1297  -50.9210    6.2861 c6      1  lig       0.076700
      6 C_05         -0.9519  -52.0650    6.2906 c7      1  lig      -0.213100
      7 C_06         -2.3129  -51.9374    5.9451 c8      1  lig      -0.218400
      8 C_07         -2.8209  -50.6854    5.5793 c9      1  lig      -0.132300
      9 C_08         -1.9989  -49.5403    5.5815 cb      1  lig      -0.048100
     10 C_09         -0.6224  -49.6228    5.9597 ci      1  lig       0.148200
     11 C_0a          0.4706  -48.6823    6.1245 cj      1  lig      -0.198100
     12 C_0b          0.3811  -47.1915    5.9728 ck      1  lig      -0.014700
     13 C_0c         -0.2096  -46.5273    7.2339 cm      1  lig       0.061800
     14 C_0d         -0.7304  -45.1005    6.9792 cn      1  lig      -0.001800
     15 O_0e         -1.8882  -45.1382    6.1518 o2      1  lig      -0.402900
     16 C_0f         -3.1367  -45.2529    6.7348 co      1  lig       0.326300
     17 C_0g         -3.3729  -45.5902    8.0931 cq      1  lig      -0.285100
     18 C_0h         -4.6916  -45.7161    8.5834 cr      1  lig       0.095700
     19 C_0i         -4.9112  -46.1093   10.0362 cs      1  lig      -0.186500
     20 C_0j         -5.7883  -45.5041    7.7218 ct      1  lig      -0.008700
     21 Cl0k         -7.4049  -45.7013    8.2786 a0      1  lig      -0.167000
     22 C_0l         -5.5577  -45.1489    6.3816 cw      1  lig      -0.160300
     23 C_0m         -4.2425  -45.0326    5.8932 cA      1  lig      -0.169800
     24 H_0n         -0.5470  -53.0187    6.5853 h0      1  lig       0.149700
     25 H_0o         -2.9489  -52.8070    5.9633 h6      1  lig       0.142700
     26 H_0p         -3.8615  -50.6005    5.3069 h7      1  lig       0.117500
     27 Cl0q         -2.6995  -48.0386    5.1160 a1      1  lig      -0.143900
     28 H_0r         -0.2419  -46.9394    5.1146 h8      1  lig       0.057300
     29 H_0s          1.3536  -46.7639    5.7460 h9      1  lig       0.057300
     30 H_0t          0.5347  -46.5325    8.0286 hb      1  lig       0.006200
     31 H_0u         -1.0434  -47.1256    7.5991 hd      1  lig       0.006200
     32 H_0v          0.0419  -44.5299    6.4634 he      1  lig       0.084800
     33 H_0w         -0.9160  -44.5739    7.9150 hf      1  lig       0.084800
     34 H_0x         -2.5431  -45.7658    8.7612 hg      1  lig       0.167400
     35 H_0y         -5.5897  -45.4169   10.5401 hh      1  lig       0.068500
     36 H_0z         -5.3477  -47.1100   10.0915 hi      1  lig       0.068500
     37 H_10         -3.9767  -46.1161   10.6002 hj      1  lig       0.068500
     38 H_11         -4.0872  -44.7713    4.8560 hk      1  lig       0.131700
     39 H_12         -6.3952  -44.9810    5.7191 hl      1  lig       0.152500
     40 N_13          1.2122  -50.7518    6.5733 n0      1  lig      -0.353800
     41 H_14          1.8907  -51.4663    6.8340 hm      1  lig       0.349600
@<TRIPOS>BOND
     1     1     2    2
     2     2     3    1
     3     2     4    1
     4     4    11    2
     5     4    40    1
     6     5     6    1
     7     5    10    2
     8     5    40    1
     9     6     7    2
    10     6    24    1
    11     7     8    1
    12     7    25    1
    13     8     9    2
    14     8    26    1
    15     9    10    1
    16     9    27    1
    17    10    11    1
    18    11    12    1
    19    12    28    1
    20    12    29    1
    21    12    13    1
    22    13    14    1
    23    13    30    1
    24    13    31    1
    25    14    15    1
    26    14    32    1
    27    14    33    1
    28    15    16    1
    29    16    17    2
    30    16    23    1
    31    17    18    1
    32    17    34    1
    33    18    19    1
    34    18    20    2
    35    19    35    1
    36    19    36    1
    37    19    37    1
    38    20    21    1
    39    20    22    1
    40    22    23    2
    41    22    39    1
    42    23    38    1
    43    40    41    1
