@<TRIPOS>MOLECULE
lig
  44   46 0 0 0
SMALL
NO_CHARGES


@<TRIPOS>ATOM
      1 O_00          3.7793  -49.8551    7.0486 o0      1  lig      -0.797400
      2 C_01          2.9869  -48.9536    6.6755 c4      1  lig       0.839500
      3 O_02          3.3674  -47.7712    6.5283 o1      1  lig      -0.748800
      4 C_03          1.5743  -49.3351    6.4116 c5      1  lig      -0.007200
      5 C_04         -0.1186  -50.8654    6.3660 c6      1  lig       0.078200
      6 C_05         -0.9353  -52.0079    6.4726 c7      1  lig      -0.215200
      7 C_06         -2.2983  -51.9243    6.1497 c8      1  lig      -0.214500
      8 C_07         -2.8394  -50.6992    5.7155 c9      1  lig      -0.142700
      9 C_08         -2.0219  -49.5504    5.6229 cb      1  lig      -0.034500
     10 C_09         -0.6359  -49.6058    5.9539 ci      1  lig       0.143200
     11 C_0a          0.4437  -48.6413    6.0163 cj      1  lig      -0.202900
     12 C_0b          0.3299  -47.1710    5.7539 ck      1  lig      -0.015000
     13 C_0c         -0.1581  -46.4326    7.0125 cm      1  lig       0.074300
     14 C_0d         -0.6377  -45.0064    6.7266 cn      1  lig       0.019800
     15 O_0e         -1.8216  -45.0466    5.9392 o2      1  lig      -0.388300
     16 C_0f         -3.0478  -45.1371    6.5648 co      1  lig       0.286300
     17 C_0g         -3.2350  -45.4603    7.9288 cq      1  lig      -0.260700
     18 C_0h         -4.5322  -45.6029    8.4606 cr      1  lig       0.029300
     19 C_0i         -4.6965  -46.0234    9.9032 cs      1  lig      -0.165600
     20 C_0j         -5.6613  -45.3986    7.6394 ct      1  lig      -0.010000
     21 Cl0k         -7.2509  -45.6153    8.2746 a0      1  lig      -0.159400
     22 C_0l         -5.4842  -45.0381    6.2876 cw      1  lig       0.057700
     23 C_0m         -6.6772  -44.8280    5.3721 cA      1  lig      -0.101200
     24 C_0n         -4.1811  -44.9222    5.7571 cB      1  lig      -0.226300
     25 H_0o         -0.5074  -52.9447    6.8061 h0      1  lig       0.149500
     26 H_0p         -2.9294  -52.8025    6.2356 h6      1  lig       0.142400
     27 H_0q         -3.8920  -50.6527    5.4647 h7      1  lig       0.119400
     28 Cl0r         -2.7591  -48.0672    5.1129 a1      1  lig      -0.148200
     29 H_0s         -0.3547  -46.9813    4.9224 h8      1  lig       0.054400
     30 H_0t          1.2818  -46.7549    5.4393 h9      1  lig       0.054400
     31 H_0u          0.6482  -46.4140    7.7546 hb      1  lig       0.001600
     32 H_0v         -0.9697  -47.0031    7.4646 hd      1  lig       0.001600
     33 H_0w          0.1311  -44.4722    6.1648 he      1  lig       0.075800
     34 H_0x         -0.7740  -44.4350    7.6482 hf      1  lig       0.075800
     35 H_0y         -2.3878  -45.6249    8.5742 hg      1  lig       0.166100
     36 H_0z         -5.3628  -45.3425   10.4435 hh      1  lig       0.064800
     37 H_10         -5.1215  -47.0319    9.9632 hi      1  lig       0.064800
     38 H_11         -3.7378  -46.0406   10.4320 hj      1  lig       0.064800
     39 H_12         -6.3693  -44.5230    4.3710 hk      1  lig       0.044700
     40 H_13         -7.2388  -45.7616    5.2796 hl      1  lig       0.044700
     41 H_14         -7.3363  -44.0653    5.7749 hm      1  lig       0.044700
     42 H_15         -4.0437  -44.6634    4.7162 hq      1  lig       0.141500
     43 N_16          1.2283  -50.6666    6.6110 n0      1  lig      -0.348000
     44 H_17          1.9287  -51.3488    6.9074 hr      1  lig       0.346600
@<TRIPOS>BOND
     1     1     2    2
     2     2     3    1
     3     2     4    1
     4     4    11    2
     5     4    43    1
     6     5     6    1
     7     5    10    2
     8     5    43    1
     9     6     7    2
    10     6    25    1
    11     7     8    1
    12     7    26    1
    13     8     9    2
    14     8    27    1
    15     9    10    1
    16     9    28    1
    17    10    11    1
    18    11    12    1
    19    12    29    1
    20    12    30    1
    21    12    13    1
    22    13    14    1
    23    13    31    1
    24    13    32    1
    25    14    15    1
    26    14    33    1
    27    14    34    1
    28    15    16    1
    29    16    17    2
    30    16    24    1
    31    17    18    1
    32    17    35    1
    33    18    19    1
    34    18    20    2
    35    19    36    1
    36    19    37    1
    37    19    38    1
    38    20    21    1
    39    20    22    1
    40    22    23    1
    41    22    24    2
    42    23    39    1
    43    23    40    1
    44    23    41    1
    45    24    42    1
    46    43    44    1
