@<TRIPOS>MOLECULE
lig
  44   47 0 0 0
SMALL
NO_CHARGES


@<TRIPOS>ATOM
      1 O_00          3.7527  -49.6152    6.8636 o0      1  lig      -0.798000
      2 C_01          2.8848  -48.7317    6.6600 c4      1  lig       0.838600
      3 O_02          3.1745  -47.5142    6.7244 o1      1  lig      -0.751100
      4 C_03          1.4963  -49.1647    6.3449 c5      1  lig       0.003500
      5 C_04         -0.1706  -50.7326    6.1724 c6      1  lig       0.102800
      6 C_05         -0.9638  -51.8980    6.1848 c7      1  lig      -0.213900
      7 C_06         -2.3385  -51.8063    5.8920 c8      1  lig      -0.229100
      8 C_07         -2.8945  -50.5470    5.5892 c9      1  lig      -0.119400
      9 C_08         -2.1048  -49.3755    5.5930 cb      1  lig      -0.050200
     10 C_09         -0.7152  -49.4395    5.8829 ci      1  lig       0.140700
     11 C_0a          0.3471  -48.4704    6.0111 cj      1  lig      -0.211800
     12 C_0b          0.2138  -46.9863    5.9181 ck      1  lig      -0.016300
     13 C_0c         -0.0845  -46.4209    7.3062 cm      1  lig       0.062100
     14 C_0d         -0.6144  -44.9916    7.3052 cn      1  lig      -0.078100
     15 O_0e         -1.9032  -44.9246    6.7062 o2      1  lig      -0.344600
     16 C_0f         -3.0236  -45.1515    7.4787 co      1  lig       0.202400
     17 C_0g         -5.3750  -45.5596    9.0081 cq      1  lig      -0.226500
     18 C_0h         -4.1326  -45.9972    9.4926 cr      1  lig      -0.239000
     19 C_0i         -2.9744  -45.8157    8.7239 cs      1  lig      -0.167600
     20 H_0j         -0.5176  -52.8580    6.4257 h0      1  lig       0.147100
     21 H_0k         -2.9480  -52.6929    5.8996 h6      1  lig       0.144500
     22 H_0l         -3.9451  -50.4849    5.3600 h7      1  lig       0.110000
     23 Cl0m         -2.8919  -47.8611    5.2687 a0      1  lig      -0.136600
     24 H_0n         -0.5735  -46.7018    5.2184 h8      1  lig       0.062000
     25 H_0o          1.1226  -46.5310    5.5107 h9      1  lig       0.062000
     26 H_0p          0.8231  -46.4830    7.8976 hb      1  lig       0.007600
     27 H_0q         -0.8063  -47.0664    7.8111 hd      1  lig       0.007600
     28 H_0r          0.0691  -44.3813    6.7142 he      1  lig       0.102800
     29 H_0s         -0.6277  -44.5694    8.3150 hf      1  lig       0.102800
     30 H_0t         -2.0412  -46.1723    9.1262 hg      1  lig       0.144600
     31 C_0u         -5.4558  -44.9041    7.7675 ct      1  lig       0.074900
     32 C_0v         -4.2759  -44.6954    7.0025 cw      1  lig       0.133100
     33 C_0w         -4.3683  -44.0049    5.7701 cA      1  lig      -0.165200
     34 C_0x         -5.6111  -43.5273    5.3116 cB      1  lig      -0.166900
     35 C_0y         -6.7775  -43.7552    6.0709 cC      1  lig      -0.157400
     36 C_0z         -6.7018  -44.4463    7.2927 cD      1  lig      -0.195300
     37 H_10         -3.4833  -43.8281    5.1811 hh      1  lig       0.131500
     38 H_11         -5.6684  -42.9880    4.3736 hi      1  lig       0.136600
     39 H_12         -7.7319  -43.3883    5.7175 hj      1  lig       0.134300
     40 H_13         -7.5959  -44.6138    7.8717 hk      1  lig       0.130400
     41 H_14         -4.0734  -46.4936   10.4507 hl      1  lig       0.167700
     42 H_15         -6.2681  -45.7131    9.5988 hm      1  lig       0.140300
     43 N_16          1.1745  -50.5105    6.4276 n0      1  lig      -0.377700
     44 H_17          1.8793  -51.1829    6.6898 hq      1  lig       0.354800
@<TRIPOS>BOND
     1     1     2    2
     2     2     3    1
     3     2     4    1
     4     4    11    2
     5     4    43    1
     6     5     6    1
     7     5    10    2
     8     5    43    1
     9     6     7    2
    10     6    20    1
    11     7     8    1
    12     7    21    1
    13     8     9    2
    14     8    22    1
    15     9    10    1
    16     9    23    1
    17    10    11    1
    18    11    12    1
    19    12    24    1
    20    12    25    1
    21    12    13    1
    22    13    14    1
    23    13    26    1
    24    13    27    1
    25    14    15    1
    26    14    28    1
    27    14    29    1
    28    15    16    1
    29    16    19    2
    30    16    32    1
    31    17    18    2
    32    17    31    1
    33    17    42    1
    34    18    19    1
    35    18    41    1
    36    19    30    1
    37    31    32    2
    38    31    36    1
    39    32    33    1
    40    33    34    2
    41    33    37    1
    42    34    35    1
    43    34    38    1
    44    35    36    2
    45    35    39    1
    46    36    40    1
    47    43    44    1
