@<TRIPOS>MOLECULE
lig
  41   43 0 0 0
SMALL
NO_CHARGES


@<TRIPOS>ATOM
      1 O_00          3.6519  -50.1731    7.5910 o0      1  lig      -0.786800
      2 C_01          3.0433  -49.1959    7.1015 c4      1  lig       0.822500
      3 O_02          3.5655  -48.0687    6.9870 o1      1  lig      -0.746400
      4 C_03          1.6483  -49.3725    6.6570 c5      1  lig      -0.015200
      5 C_04         -0.3320  -50.4839    6.5819 c6      1  lig       0.078700
      6 C_05         -1.4113  -51.3646    6.7488 c7      1  lig      -0.128600
      7 C_06         -2.6844  -50.9778    6.2976 c8      1  lig      -0.022900
      8 C_07         -2.8676  -49.7470    5.6359 c9      1  lig      -0.126600
      9 C_08         -1.7777  -48.8758    5.4639 cb      1  lig      -0.252200
     10 C_09         -0.4901  -49.2182    5.9483 ci      1  lig       0.073600
     11 C_0a          0.7777  -48.5424    5.9916 cj      1  lig      -0.151500
     12 C_0b          1.0475  -47.1566    5.5153 ck      1  lig      -0.007200
     13 C_0c          1.0218  -46.1839    6.7045 cm      1  lig       0.057400
     14 C_0d          0.4477  -44.8206    6.3095 cn      1  lig      -0.030100
     15 O_0e         -0.8651  -44.8822    5.7760 o2      1  lig      -0.389300
     16 C_0f         -1.9430  -45.1814    6.5878 co      1  lig       0.318900
     17 C_0g         -3.2160  -45.1421    5.9801 cq      1  lig      -0.316400
     18 C_0h         -4.3936  -45.3534    6.7336 cr      1  lig       0.143000
     19 C_0i         -5.7495  -45.1797    6.0705 cs      1  lig      -0.200200
     20 C_0j         -4.2869  -45.6872    8.1025 ct      1  lig      -0.009200
     21 Cl0k         -5.6898  -46.0040    9.0603 a0      1  lig      -0.158900
     22 C_0l         -3.0245  -45.7414    8.7159 cw      1  lig      -0.214000
     23 C_0m         -1.8648  -45.4531    7.9752 cA      1  lig      -0.162100
     24 H_0n         -1.2649  -52.3092    7.2560 h0      1  lig       0.137800
     25 Cl0o         -4.0424  -51.9828    6.5895 a1      1  lig      -0.181600
     26 H_0p         -3.8532  -49.4576    5.2953 h6      1  lig       0.123500
     27 H_0q         -1.9286  -47.9157    4.9823 h7      1  lig       0.170800
     28 H_0r          0.2992  -46.8849    4.7743 h8      1  lig       0.044700
     29 H_0s          2.0104  -47.0970    4.9985 h9      1  lig       0.044700
     30 H_0t          2.0265  -46.0516    7.1041 hb      1  lig       0.006500
     31 H_0u          0.4504  -46.6226    7.5182 hd      1  lig       0.006500
     32 H_0v          1.1107  -44.4322    5.5444 he      1  lig       0.097300
     33 H_0w          0.4854  -44.0896    7.0996 hf      1  lig       0.097300
     34 H_0x         -3.2893  -44.9075    4.9284 hg      1  lig       0.163000
     35 H_0y         -6.4354  -45.9830    6.3550 hh      1  lig       0.071200
     36 H_0z         -6.1890  -44.2318    6.3827 hi      1  lig       0.071200
     37 H_10         -5.6734  -45.1750    4.9829 hj      1  lig       0.071200
     38 H_11         -0.9262  -45.4276    8.5063 hk      1  lig       0.141000
     39 H_12         -2.9412  -45.9827    9.7646 hl      1  lig       0.174900
     40 N_13          0.9956  -50.5546    6.9557 n0      1  lig      -0.370000
     41 H_14          1.4807  -51.2969    7.4419 hm      1  lig       0.353500
@<TRIPOS>BOND
     1     1     2    2
     2     2     3    1
     3     2     4    1
     4     4    11    2
     5     4    40    1
     6     5     6    1
     7     5    10    2
     8     5    40    1
     9     6     7    2
    10     6    24    1
    11     7     8    1
    12     7    25    1
    13     8     9    2
    14     8    26    1
    15     9    10    1
    16     9    27    1
    17    10    11    1
    18    11    12    1
    19    12    28    1
    20    12    29    1
    21    12    13    1
    22    13    14    1
    23    13    30    1
    24    13    31    1
    25    14    15    1
    26    14    32    1
    27    14    33    1
    28    15    16    1
    29    16    17    2
    30    16    23    1
    31    17    18    1
    32    17    34    1
    33    18    19    1
    34    18    20    2
    35    19    35    1
    36    19    36    1
    37    19    37    1
    38    20    21    1
    39    20    22    1
    40    22    23    2
    41    22    39    1
    42    23    38    1
    43    40    41    1
