@<TRIPOS>MOLECULE
lig
  44   46 0 0 0
SMALL
NO_CHARGES


@<TRIPOS>ATOM
      1 O_00          3.5633  -47.7725    6.2912 o0      1  lig      -0.748900
      2 C_01          2.9990  -48.7572    6.8105 c4      1  lig       0.817500
      3 O_02          3.5991  -49.5249    7.5965 o1      1  lig      -0.786200
      4 C_03          1.5779  -49.0223    6.4966 c5      1  lig      -0.009400
      5 C_04         -0.3475  -50.2345    6.7439 c6      1  lig       0.078100
      6 C_05         -1.3726  -51.1291    7.1185 c7      1  lig      -0.126700
      7 C_06         -2.6775  -50.9471    6.6123 c8      1  lig      -0.023600
      8 C_07         -2.9184  -49.8992    5.6921 c9      1  lig      -0.149200
      9 C_08         -1.8916  -49.0147    5.3222 cb      1  lig      -0.201600
     10 C_09         -0.5857  -49.1422    5.8567 ci      1  lig       0.044400
     11 C_0a          0.6255  -48.3732    5.7579 cj      1  lig      -0.107500
     12 C_0b          0.7780  -47.0671    5.0307 ck      1  lig       0.041400
     13 C_0c          0.7971  -45.8570    5.9948 cm      1  lig      -0.019900
     14 C_0d         -0.4751  -45.7293    6.8378 cn      1  lig      -0.146600
     15 O_0e         -1.5902  -45.4593    5.9971 o2      1  lig      -0.229400
     16 C_0f         -2.8366  -45.4835    6.5820 co      1  lig       0.122000
     17 C_0g         -3.0790  -45.8230    7.9355 cq      1  lig      -0.173800
     18 C_0h         -4.3932  -45.8530    8.4569 cr      1  lig       0.028500
     19 C_0i         -4.6030  -46.2695    9.9009 cs      1  lig      -0.119500
     20 C_0j         -5.4830  -45.5150    7.6284 ct      1  lig      -0.010700
     21 Cl0k         -7.0947  -45.5514    8.2641 a0      1  lig      -0.153900
     22 C_0l         -5.2572  -45.1565    6.2816 cw      1  lig       0.077700
     23 C_0m         -6.4197  -44.7794    5.3753 cA      1  lig      -0.112300
     24 C_0n         -3.9414  -45.1545    5.7667 cB      1  lig      -0.237300
     25 H_0o         -1.1746  -51.9204    7.8217 h0      1  lig       0.136000
     26 Cl0p         -3.9554  -51.9815    7.1109 a1      1  lig      -0.178300
     27 H_0q         -3.9172  -49.7603    5.2947 h6      1  lig       0.128400
     28 H_0r         -2.0998  -48.2000    4.6420 h7      1  lig       0.164500
     29 H_0s         -0.0541  -46.9554    4.3227 h8      1  lig       0.005900
     30 H_0t          1.6867  -47.0741    4.4237 h9      1  lig       0.005900
     31 H_0u          0.9692  -44.9414    5.4362 hb      1  lig       0.045500
     32 H_0v          1.6544  -45.9582    6.6661 hd      1  lig       0.045500
     33 H_0w         -0.3569  -44.9148    7.5568 he      1  lig       0.121400
     34 H_0x         -0.6037  -46.6484    7.4050 hf      1  lig       0.121400
     35 H_0y         -2.2739  -46.0799    8.6015 hg      1  lig       0.126300
     36 H_0z         -5.1155  -45.4823   10.4590 hh      1  lig       0.053200
     37 H_10         -5.2126  -47.1749    9.9474 hi      1  lig       0.053200
     38 H_11         -3.6578  -46.4782   10.4009 hj      1  lig       0.053200
     39 H_12         -6.0752  -44.5140    4.3756 hk      1  lig       0.047100
     40 H_13         -7.1156  -45.6150    5.2839 hl      1  lig       0.047100
     41 H_14         -6.9557  -43.9220    5.7856 hm      1  lig       0.047100
     42 H_15         -3.7745  -44.8949    4.7279 hq      1  lig       0.142800
     43 N_16          0.9882  -50.1295    7.0836 n0      1  lig      -0.371400
     44 H_17          1.5182  -50.7414    7.6866 hr      1  lig       0.352100
@<TRIPOS>BOND
     1     1     2    2
     2     2     3    1
     3     2     4    1
     4     4    11    2
     5     4    43    1
     6     5     6    1
     7     5    10    2
     8     5    43    1
     9     6     7    2
    10     6    25    1
    11     7     8    1
    12     7    26    1
    13     8     9    2
    14     8    27    1
    15     9    10    1
    16     9    28    1
    17    10    11    1
    18    11    12    1
    19    12    29    1
    20    12    30    1
    21    12    13    1
    22    13    14    1
    23    13    31    1
    24    13    32    1
    25    14    15    1
    26    14    33    1
    27    14    34    1
    28    15    16    1
    29    16    17    2
    30    16    24    1
    31    17    18    1
    32    17    35    1
    33    18    19    1
    34    18    20    2
    35    19    36    1
    36    19    37    1
    37    19    38    1
    38    20    21    1
    39    20    22    1
    40    22    23    1
    41    22    24    2
    42    23    39    1
    43    23    40    1
    44    23    41    1
    45    24    42    1
    46    43    44    1
