@<TRIPOS>MOLECULE
lig
  44   47 0 0 0
SMALL
NO_CHARGES


@<TRIPOS>ATOM
      1 O_00          3.6008  -50.1426    7.0953 o0      1  lig      -0.787600
      2 C_01          2.9945  -49.0877    6.7720 c4      1  lig       0.818200
      3 O_02          3.5637  -47.9827    6.7380 o1      1  lig      -0.749500
      4 C_03          1.5546  -49.1833    6.4462 c5      1  lig      -0.002800
      5 C_04         -0.4163  -50.3312    6.3666 c6      1  lig       0.085400
      6 C_05         -1.4599  -51.2734    6.4649 c7      1  lig      -0.127100
      7 C_06         -2.7720  -50.8647    6.1354 c8      1  lig      -0.024300
      8 C_07         -3.0153  -49.5600    5.6849 c9      1  lig      -0.136200
      9 C_08         -1.9719  -48.6268    5.5970 cb      1  lig      -0.217500
     10 C_09         -0.6362  -48.9893    5.9458 ci      1  lig       0.045400
     11 C_0a          0.6049  -48.2698    6.0108 cj      1  lig      -0.112600
     12 C_0b          0.7928  -46.8042    5.7026 ck      1  lig       0.048300
     13 C_0c          0.7659  -45.9154    6.9617 cm      1  lig      -0.009600
     14 C_0d         -0.4547  -46.1428    7.8719 cn      1  lig      -0.152300
     15 O_0e         -1.6482  -45.7967    7.1768 o2      1  lig      -0.201400
     16 C_0f         -2.8653  -46.0089    7.8013 co      1  lig       0.073500
     17 C_0g         -5.3919  -46.3961    9.0422 cq      1  lig      -0.257200
     18 C_0h         -4.2120  -46.7521    9.7091 cr      1  lig      -0.198900
     19 C_0i         -2.9640  -46.5642    9.0973 cs      1  lig      -0.144000
     20 H_0j         -1.2657  -52.2717    6.8071 h0      1  lig       0.135600
     21 Cl0k         -4.0633  -51.9831    6.3229 a0      1  lig      -0.182300
     22 H_0l         -4.0227  -49.2605    5.4253 h6      1  lig       0.127400
     23 H_0m         -2.1803  -47.6183    5.2861 h7      1  lig       0.166300
     24 H_0n         -0.0004  -46.4776    5.0287 h8      1  lig       0.004000
     25 H_0o          1.7311  -46.6449    5.1622 h9      1  lig       0.004000
     26 H_0p          0.8103  -44.8658    6.6678 hb      1  lig       0.039200
     27 H_0q          1.6726  -46.1131    7.5350 hd      1  lig       0.039200
     28 H_0r         -0.3610  -45.5323    8.7700 he      1  lig       0.118200
     29 H_0s         -0.4705  -47.1845    8.1904 hf      1  lig       0.118200
     30 H_0t         -2.0870  -46.8540    9.6464 hg      1  lig       0.121200
     31 C_0u         -5.3220  -45.8538    7.7419 ct      1  lig       0.119000
     32 C_0v         -4.0586  -45.6657    7.1236 cw      1  lig       0.121300
     33 C_0w         -4.0089  -45.1257    5.8153 cA      1  lig      -0.188300
     34 C_0x         -5.1957  -44.7666    5.1494 cB      1  lig      -0.151100
     35 C_0y         -6.4462  -44.9616    5.7683 cC      1  lig      -0.160200
     36 C_0z         -6.5086  -45.5045    7.0675 cD      1  lig      -0.201700
     37 H_10         -3.0572  -44.9736    5.3238 hh      1  lig       0.138200
     38 H_11         -5.1460  -44.3459    4.1528 hi      1  lig       0.134900
     39 H_12         -7.3538  -44.6861    5.2492 hj      1  lig       0.136200
     40 H_13         -7.4693  -45.6476    7.5385 hk      1  lig       0.132400
     41 H_14         -4.2660  -47.1681   10.6999 hl      1  lig       0.161100
     42 H_15         -6.3463  -46.5386    9.5257 hm      1  lig       0.143800
     43 N_16          0.9431  -50.4141    6.6339 n0      1  lig      -0.378500
     44 H_17          1.4728  -51.2281    6.9597 hq      1  lig       0.352100
@<TRIPOS>BOND
     1     1     2    2
     2     2     3    1
     3     2     4    1
     4     4    11    2
     5     4    43    1
     6     5     6    1
     7     5    10    2
     8     5    43    1
     9     6     7    2
    10     6    20    1
    11     7     8    1
    12     7    21    1
    13     8     9    2
    14     8    22    1
    15     9    10    1
    16     9    23    1
    17    10    11    1
    18    11    12    1
    19    12    24    1
    20    12    25    1
    21    12    13    1
    22    13    14    1
    23    13    26    1
    24    13    27    1
    25    14    15    1
    26    14    28    1
    27    14    29    1
    28    15    16    1
    29    16    19    2
    30    16    32    1
    31    17    18    2
    32    17    31    1
    33    17    42    1
    34    18    19    1
    35    18    41    1
    36    19    30    1
    37    31    32    2
    38    31    36    1
    39    32    33    1
    40    33    34    2
    41    33    37    1
    42    34    35    1
    43    34    38    1
    44    35    36    2
    45    35    39    1
    46    36    40    1
    47    43    44    1
