@<TRIPOS>MOLECULE
lig
  47   49 0 0 0
SMALL
NO_CHARGES


@<TRIPOS>ATOM
      1 O_00          3.8860  -49.6912    7.1567 o0      1  lig      -0.770200
      2 C_01          3.1152  -48.8646    6.6079 c4      1  lig       0.818200
      3 O_02          3.5628  -47.7316    6.3168 o1      1  lig      -0.753800
      4 C_03          1.6860  -49.2230    6.3249 c5      1  lig      -0.034500
      5 C_04         -0.1971  -50.5147    6.2703 c6      1  lig       0.070200
      6 C_05         -1.1985  -51.5173    6.3677 c7      1  lig      -0.189900
      7 C_06         -2.5251  -51.2521    5.9892 c8      1  lig      -0.176300
      8 C_07         -2.8500  -49.9692    5.4926 c9      1  lig      -0.252500
      9 C_08         -1.8593  -48.9599    5.3776 cb      1  lig      -0.109700
     10 C_09         -0.5124  -49.2088    5.7723 ci      1  lig       0.026500
     11 C_0a          0.6850  -48.4219    5.8067 cj      1  lig      -0.184700
     12 C_0b          0.7943  -46.9841    5.3695 ck      1  lig       0.041300
     13 C_0c          0.7867  -45.9897    6.5468 cm      1  lig      -0.045300
     14 C_0d         -0.5620  -45.9184    7.2689 cn      1  lig      -0.212900
     15 O_0e         -1.5108  -45.3393    6.3843 o2      1  lig      -0.230500
     16 C_0f         -2.7734  -45.0766    6.8667 co      1  lig       0.125000
     17 C_0g         -3.2521  -45.5115    8.1245 cq      1  lig      -0.195000
     18 C_0h         -4.5558  -45.1862    8.5488 cr      1  lig       0.037400
     19 C_0i         -5.0405  -45.6887    9.8958 cs      1  lig      -0.103500
     20 C_0j         -5.3922  -44.4078    7.7183 ct      1  lig      -0.007000
     21 Cl0k         -6.9812  -43.9831    8.2402 a0      1  lig      -0.158400
     22 C_0l         -4.9232  -43.9759    6.4562 cw      1  lig       0.066000
     23 C_0m         -5.7953  -43.1306    5.5483 cA      1  lig      -0.106300
     24 C_0n         -3.6246  -44.3209    6.0415 cB      1  lig      -0.221800
     25 H_0o         -0.9461  -52.4911    6.7461 h0      1  lig       0.122100
     26 H_0p         -3.2977  -52.0166    6.0792 h6      1  lig       0.124700
     27 H_0q         -3.8727  -49.7548    5.2030 h7      1  lig       0.130900
     28 H_0r         -2.1315  -47.9796    4.9971 h8      1  lig       0.135100
     29 H_0s         -0.0129  -46.7422    4.6760 h9      1  lig       0.017000
     30 H_0t          1.7136  -46.8490    4.7959 hb      1  lig       0.017000
     31 H_0u          1.0429  -44.9982    6.1728 hd      1  lig       0.068100
     32 H_0v          1.5694  -46.2498    7.2605 he      1  lig       0.068100
     33 H_0w         -0.4587  -45.3076    8.1660 hf      1  lig       0.140200
     34 H_0x         -0.8794  -46.9154    7.5776 hg      1  lig       0.140200
     35 H_0y         -2.6285  -46.0979    8.7785 hh      1  lig       0.134200
     36 H_0z         -5.5447  -44.8979   10.4490 hi      1  lig       0.046900
     37 H_10         -5.7400  -46.5119    9.7544 hj      1  lig       0.046900
     38 H_11         -4.2150  -46.0488   10.5105 hk      1  lig       0.046900
     39 H_12         -5.2719  -42.8544    4.6316 hl      1  lig       0.045100
     40 H_13         -6.6997  -43.6722    5.2707 hm      1  lig       0.045100
     41 H_14         -6.0850  -42.2110    6.0560 hq      1  lig       0.045100
     42 H_15         -3.2624  -43.9924    5.0819 hr      1  lig       0.140500
     43 C_16          1.8852  -51.6780    7.1113 cC      1  lig      -0.084200
     44 H_17          1.2409  -52.5557    7.2050 ht      1  lig       0.059400
     45 H_18          2.7069  -51.9461    6.4349 hu      1  lig       0.059400
     46 H_19          2.2851  -51.4578    8.1087 hv      1  lig       0.059400
     47 N_1a          1.1675  -50.5139    6.5888 n0      1  lig      -0.040400
@<TRIPOS>BOND
     1     1     2    2
     2     2     3    1
     3     2     4    1
     4     4    11    2
     5     4    47    1
     6     5     6    1
     7     5    10    2
     8     5    47    1
     9     6     7    2
    10     6    25    1
    11     7     8    1
    12     7    26    1
    13     8     9    2
    14     8    27    1
    15     9    10    1
    16     9    28    1
    17    10    11    1
    18    11    12    1
    19    12    29    1
    20    12    30    1
    21    12    13    1
    22    13    14    1
    23    13    31    1
    24    13    32    1
    25    14    15    1
    26    14    33    1
    27    14    34    1
    28    15    16    1
    29    16    17    2
    30    16    24    1
    31    17    18    1
    32    17    35    1
    33    18    19    1
    34    18    20    2
    35    19    36    1
    36    19    37    1
    37    19    38    1
    38    20    21    1
    39    20    22    1
    40    22    23    1
    41    22    24    2
    42    23    39    1
    43    23    40    1
    44    23    41    1
    45    24    42    1
    46    43    44    1
    47    43    45    1
    48    43    46    1
    49    43    47    1
