@<TRIPOS>MOLECULE
lig
  47   50 0 0 0
SMALL
NO_CHARGES


@<TRIPOS>ATOM
      1 O_00          3.5644  -47.6678    5.9794 o0      1  lig      -0.757300
      2 C_01          3.1061  -48.6748    6.5602 c4      1  lig       0.822300
      3 O_02          3.8451  -49.2908    7.3808 o1      1  lig      -0.772300
      4 C_03          1.6967  -49.0920    6.3186 c5      1  lig      -0.038100
      5 C_04         -0.1535  -50.4335    6.3918 c6      1  lig       0.063100
      6 C_05         -1.1205  -51.4551    6.5735 c7      1  lig      -0.181000
      7 C_06         -2.4473  -51.2528    6.1514 c8      1  lig      -0.188100
      8 C_07         -2.8077  -50.0288    5.5584 c9      1  lig      -0.233300
      9 C_08         -1.8532  -49.0185    5.3763 cb      1  lig      -0.135000
     10 C_09         -0.4989  -49.1915    5.7783 ci      1  lig       0.023500
     11 C_0a          0.6696  -48.3728    5.7223 cj      1  lig      -0.179900
     12 C_0b          0.7299  -46.9821    5.1515 ck      1  lig       0.062300
     13 C_0c          0.8228  -45.8723    6.2201 cm      1  lig      -0.034100
     14 C_0d         -0.3002  -45.9030    7.2643 cn      1  lig      -0.229100
     15 O_0e         -1.5339  -45.4785    6.6854 o2      1  lig      -0.189700
     16 C_0f         -2.6539  -45.4735    7.4912 co      1  lig       0.067900
     17 C_0g         -5.0024  -45.4171    9.0952 cq      1  lig      -0.245600
     18 C_0h         -3.8541  -46.0855    9.5449 cr      1  lig      -0.202800
     19 C_0i         -2.6939  -46.1087    8.7532 cs      1  lig      -0.148800
     20 H_0j         -0.8445  -52.3872    7.0350 h0      1  lig       0.121400
     21 H_0k         -3.1800  -52.0331    6.2924 h6      1  lig       0.125300
     22 H_0l         -3.8316  -49.8714    5.2455 h7      1  lig       0.130100
     23 H_0m         -2.1448  -48.0802    4.9232 h8      1  lig       0.142900
     24 H_0n         -0.1474  -46.7977    4.5314 h9      1  lig       0.009500
     25 H_0o          1.5785  -46.8906    4.4715 hb      1  lig       0.009500
     26 H_0p          0.8564  -44.8926    5.7363 hd      1  lig       0.061900
     27 H_0q          1.7722  -45.9688    6.7479 he      1  lig       0.061900
     28 H_0r         -0.0344  -45.2375    8.0851 hf      1  lig       0.137800
     29 H_0s         -0.3785  -46.9095    7.6717 hg      1  lig       0.137800
     30 H_0t         -1.8362  -46.6348    9.1369 hh      1  lig       0.127000
     31 C_0u         -4.9934  -44.7821    7.8391 ct      1  lig       0.106300
     32 C_0v         -3.8237  -44.8117    7.0307 cw      1  lig       0.128400
     33 C_0w         -3.8421  -44.1736    5.7733 cA      1  lig      -0.193500
     34 C_0x         -5.0054  -43.5186    5.3209 cB      1  lig      -0.149100
     35 C_0y         -6.1590  -43.4918    6.1266 cC      1  lig      -0.166400
     36 C_0z         -6.1539  -44.1210    7.3843 cD      1  lig      -0.197300
     37 H_10         -2.9702  -44.1816    5.1360 hi      1  lig       0.142100
     38 H_11         -5.0097  -43.0370    4.3537 hj      1  lig       0.134700
     39 H_12         -7.0512  -42.9879    5.7771 hk      1  lig       0.136900
     40 H_13         -7.0438  -44.0981    7.9957 hl      1  lig       0.131700
     41 H_14         -3.8631  -46.5752   10.5084 hm      1  lig       0.159500
     42 H_15         -5.8881  -45.3965    9.7122 hq      1  lig       0.138900
     43 C_16          1.9363  -51.4455    7.3369 cE      1  lig      -0.082500
     44 H_17          1.3189  -52.3385    7.4455 hr      1  lig       0.058000
     45 H_18          2.8013  -51.7103    6.7182 ht      1  lig       0.058000
     46 H_19          2.2782  -51.1417    8.3335 hu      1  lig       0.058000
     47 N_1a          1.1956  -50.3552    6.7086 n0      1  lig      -0.032800
@<TRIPOS>BOND
     1     1     2    2
     2     2     3    1
     3     2     4    1
     4     4    11    2
     5     4    47    1
     6     5     6    1
     7     5    10    2
     8     5    47    1
     9     6     7    2
    10     6    20    1
    11     7     8    1
    12     7    21    1
    13     8     9    2
    14     8    22    1
    15     9    10    1
    16     9    23    1
    17    10    11    1
    18    11    12    1
    19    12    24    1
    20    12    25    1
    21    12    13    1
    22    13    14    1
    23    13    26    1
    24    13    27    1
    25    14    15    1
    26    14    28    1
    27    14    29    1
    28    15    16    1
    29    16    19    2
    30    16    32    1
    31    17    18    2
    32    17    31    1
    33    17    42    1
    34    18    19    1
    35    18    41    1
    36    19    30    1
    37    31    32    2
    38    31    36    1
    39    32    33    1
    40    33    34    2
    41    33    37    1
    42    34    35    1
    43    34    38    1
    44    35    36    2
    45    35    39    1
    46    36    40    1
    47    43    44    1
    48    43    45    1
    49    43    46    1
    50    43    47    1
