@<TRIPOS>MOLECULE
lig
  47   49 0 0 0
SMALL
NO_CHARGES


@<TRIPOS>ATOM
      1 O_00          3.8903  -49.8262    7.1167 o0      1  lig      -0.763500
      2 C_01          3.1444  -48.9593    6.6057 c4      1  lig       0.807300
      3 O_02          3.6298  -47.8564    6.2829 o1      1  lig      -0.744900
      4 C_03          1.6967  -49.2066    6.4083 c5      1  lig      -0.040800
      5 C_04         -0.2621  -50.3558    6.4457 c6      1  lig       0.006700
      6 C_05         -1.3367  -51.2906    6.5989 c7      1  lig      -0.093000
      7 C_06         -2.6513  -50.8979    6.3447 c8      1  lig      -0.015300
      8 C_07         -2.9186  -49.5838    5.8919 c9      1  lig      -0.179100
      9 C_08         -1.8522  -48.6553    5.7234 cb      1  lig      -0.155100
     10 C_09         -0.5269  -49.0254    6.0090 ci      1  lig       0.017100
     11 C_0a          0.7199  -48.3234    5.9886 cj      1  lig      -0.136100
     12 C_0b          0.8738  -46.8713    5.6025 ck      1  lig       0.028800
     13 C_0c          0.9587  -45.9342    6.8261 cm      1  lig      -0.047500
     14 C_0d         -0.3001  -45.9593    7.7126 cn      1  lig      -0.203800
     15 O_0e         -1.3807  -45.3771    6.9944 o2      1  lig      -0.230600
     16 C_0f         -2.6485  -45.4526    7.5319 co      1  lig       0.123900
     17 C_0g         -2.9716  -46.1370    8.7274 cq      1  lig      -0.202000
     18 C_0h         -4.3042  -46.2018    9.1838 cr      1  lig       0.040000
     19 C_0i         -4.6224  -46.9920   10.4412 cs      1  lig      -0.103400
     20 C_0j         -5.3304  -45.5556    8.4565 ct      1  lig      -0.000300
     21 Cl0k         -6.9729  -45.6522    8.9915 a0      1  lig      -0.157500
     22 C_0l         -5.0112  -44.8439    7.2771 cw      1  lig       0.065200
     23 C_0m         -6.0922  -44.1321    6.4827 cA      1  lig      -0.100200
     24 C_0n         -3.6781  -44.8065    6.8249 cB      1  lig      -0.226500
     25 H_0o         -1.1147  -52.2741    6.9367 h0      1  lig       0.119400
     26 Cl0p         -4.0048  -51.9682    6.5931 a1      1  lig      -0.180400
     27 H_0q         -3.9346  -49.2814    5.6866 h6      1  lig       0.134400
     28 H_0r         -2.0598  -47.6477    5.3945 h7      1  lig       0.156600
     29 H_0s          0.0381  -46.5720    4.9674 h8      1  lig       0.018200
     30 H_0t          1.7616  -46.7426    4.9764 h9      1  lig       0.018200
     31 H_0u          1.1428  -44.9192    6.4756 hb      1  lig       0.068900
     32 H_0v          1.8303  -46.1999    7.4255 hd      1  lig       0.068900
     33 H_0w         -0.1097  -45.3926    8.6243 he      1  lig       0.137100
     34 H_0x         -0.5365  -46.9808    8.0128 hf      1  lig       0.137100
     35 H_0y         -2.2029  -46.6280    9.3000 hg      1  lig       0.136300
     36 H_0z         -5.3073  -46.4448   11.0889 hh      1  lig       0.047400
     37 H_10         -5.0863  -47.9404   10.1735 hi      1  lig       0.047400
     38 H_11         -3.7224  -47.2055   11.0150 hj      1  lig       0.047400
     39 H_12         -5.6783  -43.5913    5.6304 hk      1  lig       0.044100
     40 H_13         -6.8229  -44.8477    6.1042 hl      1  lig       0.044100
     41 H_14         -6.6130  -43.4123    7.1142 hm      1  lig       0.044100
     42 H_15         -3.4366  -44.2788    5.9162 hq      1  lig       0.141900
     43 C_16          1.7839  -51.7162    7.0809 cC      1  lig      -0.086600
     44 H_17          1.0620  -52.5158    7.1329 hr      1  lig       0.063500
     45 H_18          2.5411  -52.0046    6.3525 ht      1  lig       0.063500
     46 H_19          2.2130  -51.5907    8.0744 hu      1  lig       0.063500
     47 N_1a          1.1078  -50.4699    6.6570 n0      1  lig      -0.024400
@<TRIPOS>BOND
     1     1     2    2
     2     2     3    1
     3     2     4    1
     4     4    11    2
     5     4    47    1
     6     5     6    1
     7     5    10    2
     8     5    47    1
     9     6     7    2
    10     6    25    1
    11     7     8    1
    12     7    26    1
    13     8     9    2
    14     8    27    1
    15     9    10    1
    16     9    28    1
    17    10    11    1
    18    11    12    1
    19    12    29    1
    20    12    30    1
    21    12    13    1
    22    13    14    1
    23    13    31    1
    24    13    32    1
    25    14    15    1
    26    14    33    1
    27    14    34    1
    28    15    16    1
    29    16    17    2
    30    16    24    1
    31    17    18    1
    32    17    35    1
    33    18    19    1
    34    18    20    2
    35    19    36    1
    36    19    37    1
    37    19    38    1
    38    20    21    1
    39    20    22    1
    40    22    23    1
    41    22    24    2
    42    23    39    1
    43    23    40    1
    44    23    41    1
    45    24    42    1
    46    43    44    1
    47    43    45    1
    48    43    46    1
    49    43    47    1
