@<TRIPOS>MOLECULE
lig
  43   45 0 0 0
SMALL
NO_CHARGES


@<TRIPOS>ATOM
      1 O_00          3.9650  -49.5043    7.2172 o0      1  lig      -0.720300
      2 C_01          3.1647  -48.6934    6.6860 c4      1  lig       0.795800
      3 O_02          3.5469  -47.5550    6.3203 o1      1  lig      -0.764700
      4 C_03          1.7422  -49.1031    6.4894 c5      1  lig      -0.023100
      5 S_04          1.3189  -50.6778    7.1278 s0      1  lig      -0.163700
      6 C_05         -0.3298  -50.5386    6.5641 c6      1  lig       0.040300
      7 C_06         -1.3498  -51.5036    6.6886 c7      1  lig      -0.183300
      8 C_07         -2.6263  -51.2396    6.1671 c8      1  lig      -0.181100
      9 C_08         -2.8774  -50.0178    5.5363 c9      1  lig      -0.204300
     10 C_09         -1.8563  -49.0471    5.4330 cb      1  lig      -0.127000
     11 C_0a         -0.5461  -49.2759    5.9301 ci      1  lig       0.067000
     12 C_0b          0.6515  -48.4545    5.9075 cj      1  lig      -0.102200
     13 C_0c          0.6868  -47.0728    5.3244 ck      1  lig       0.070000
     14 C_0d          0.5835  -45.9866    6.4079 cm      1  lig      -0.018500
     15 C_0e         -0.7243  -46.0605    7.2196 cn      1  lig      -0.199300
     16 O_0f         -1.8113  -45.6523    6.3994 o2      1  lig      -0.230500
     17 C_0g         -3.0550  -45.5539    6.9867 co      1  lig       0.124500
     18 C_0h         -3.3644  -46.1029    8.2530 cq      1  lig      -0.185900
     19 C_0i         -4.6428  -45.9429    8.8135 cr      1  lig       0.032400
     20 C_0j         -4.9320  -46.5613   10.1729 cs      1  lig      -0.095000
     21 C_0k         -5.6327  -45.2134    8.1178 ct      1  lig      -0.004000
     22 Cl0l         -7.1917  -44.9681    8.8275 a0      1  lig      -0.157800
     23 C_0m         -5.3388  -44.6781    6.8441 cw      1  lig       0.070600
     24 C_0n         -6.3832  -43.8851    6.0760 cA      1  lig      -0.103400
     25 C_0o         -4.0597  -44.8664    6.2827 cB      1  lig      -0.238400
     26 H_0p         -1.1424  -52.4466    7.1745 h0      1  lig       0.163100
     27 H_0q         -3.4063  -51.9819    6.2486 h6      1  lig       0.127000
     28 H_0r         -3.8514  -49.8125    5.1274 h7      1  lig       0.131300
     29 H_0s         -2.0736  -48.1199    4.9316 h8      1  lig       0.139300
     30 H_0t         -0.1280  -46.9348    4.6049 h9      1  lig       0.002500
     31 H_0u          1.5994  -46.9269    4.7493 hb      1  lig       0.002500
     32 H_0v          0.6858  -44.9928    5.9616 hd      1  lig       0.057200
     33 H_0w          1.4224  -46.0973    7.0973 he      1  lig       0.057200
     34 H_0x         -0.6429  -45.3940    8.0846 hf      1  lig       0.135800
     35 H_0y         -0.8680  -47.0856    7.5733 hg      1  lig       0.135800
     36 H_0z         -2.6280  -46.6551    8.8154 hh      1  lig       0.133000
     37 H_10         -5.3736  -45.8282   10.8491 hi      1  lig       0.045600
     38 H_11         -5.6216  -47.4013   10.0689 hj      1  lig       0.045600
     39 H_12         -4.0182  -46.9333   10.6390 hk      1  lig       0.045600
     40 H_13         -5.9783  -43.4834    5.1451 hl      1  lig       0.044700
     41 H_14         -7.2409  -44.5132    5.8279 hm      1  lig       0.044700
     42 H_15         -6.7338  -43.0439    6.6758 hq      1  lig       0.044700
     43 H_16         -3.8301  -44.4518    5.3108 hr      1  lig       0.146300
@<TRIPOS>BOND
     1     1     2    2
     2     2     3    1
     3     2     4    1
     4     4     5    1
     5     4    12    2
     6     5     6    1
     7     6     7    2
     8     6    11    1
     9     7     8    1
    10     7    26    1
    11     8     9    2
    12     8    27    1
    13     9    10    1
    14     9    28    1
    15    10    11    2
    16    10    29    1
    17    11    12    1
    18    12    13    1
    19    13    30    1
    20    13    31    1
    21    13    14    1
    22    14    15    1
    23    14    32    1
    24    14    33    1
    25    15    16    1
    26    15    34    1
    27    15    35    1
    28    16    17    1
    29    17    18    2
    30    17    25    1
    31    18    19    1
    32    18    36    1
    33    19    20    1
    34    19    21    2
    35    20    37    1
    36    20    38    1
    37    20    39    1
    38    21    22    1
    39    21    23    1
    40    23    24    1
    41    23    25    2
    42    24    40    1
    43    24    41    1
    44    24    42    1
    45    25    43    1
