@<TRIPOS>MOLECULE
lig
  43   45 0 0 0
SMALL
NO_CHARGES


@<TRIPOS>ATOM
      1 O_00          3.8815  -49.5255    6.8965 o0      1  lig      -0.722900
      2 C_01          2.9282  -48.7315    6.8254 c4      1  lig       0.810500
      3 O_02          3.1342  -47.4910    6.9198 o1      1  lig      -0.759200
      4 C_03          1.5361  -49.2540    6.6236 c5      1  lig      -0.022000
      5 S_04          1.4251  -50.9973    6.6970 s0      1  lig      -0.130500
      6 C_05         -0.3094  -50.9694    6.4244 c6      1  lig      -0.018900
      7 C_06         -1.1509  -52.0864    6.3706 c7      1  lig      -0.164300
      8 C_07         -2.5142  -51.9293    6.1225 c8      1  lig      -0.219100
      9 C_08         -3.0254  -50.6311    5.9294 c9      1  lig      -0.104700
     10 C_09         -2.1817  -49.5063    5.9843 cb      1  lig      -0.023700
     11 C_0a         -0.7821  -49.6253    6.2498 ci      1  lig       0.172700
     12 C_0b          0.3084  -48.6541    6.3900 cj      1  lig      -0.157900
     13 C_0c          0.1210  -47.1523    6.2826 ck      1  lig      -0.015800
     14 C_0d         -0.4501  -46.5529    7.5729 cm      1  lig       0.035800
     15 C_0e         -0.8431  -45.0778    7.3833 cn      1  lig      -0.022700
     16 O_0f         -1.8680  -44.9577    6.4022 o2      1  lig      -0.375200
     17 C_0g         -3.1956  -44.8477    6.7661 co      1  lig       0.264600
     18 C_0h         -3.7127  -45.1304    8.0498 cq      1  lig      -0.234200
     19 C_0i         -5.0949  -44.9814    8.3077 cr      1  lig       0.021400
     20 C_0j         -5.6273  -45.2973    9.7021 cs      1  lig      -0.220200
     21 C_0k         -5.9651  -44.5579    7.2880 ct      1  lig      -0.000200
     22 Cl0l         -7.6628  -44.3657    7.6086 a0      1  lig      -0.161800
     23 C_0m         -5.4616  -44.2951    6.0024 cw      1  lig       0.066700
     24 C_0n         -6.3759  -43.8528    4.8618 cA      1  lig      -0.127200
     25 C_0o         -4.0824  -44.4393    5.7601 cB      1  lig      -0.222300
     26 H_0p         -0.7430  -53.0870    6.5090 h0      1  lig       0.170800
     27 H_0q         -3.1757  -52.7798    6.0762 h6      1  lig       0.141200
     28 H_0r         -4.0808  -50.5038    5.7246 h7      1  lig       0.116500
     29 Cl0s         -2.9292  -47.9598    5.6975 a1      1  lig      -0.145000
     30 H_0t         -0.5261  -46.9314    5.4468 h8      1  lig       0.063300
     31 H_0u          1.0628  -46.6617    6.0132 h9      1  lig       0.063300
     32 H_0v          0.2860  -46.6477    8.3768 hb      1  lig       0.014500
     33 H_0w         -1.3235  -47.1179    7.8959 hd      1  lig       0.014500
     34 H_0x          0.0265  -44.5324    7.0297 he      1  lig       0.099900
     35 H_0y         -1.1174  -44.6109    8.3212 hf      1  lig       0.099900
     36 H_0z         -3.0668  -45.4819    8.8414 hg      1  lig       0.162600
     37 H_10         -6.2638  -44.4906   10.0769 hh      1  lig       0.079200
     38 H_11         -6.2145  -46.2158    9.6761 hi      1  lig       0.079200
     39 H_12         -4.8148  -45.4370   10.4139 hj      1  lig       0.079200
     40 H_13         -5.8052  -43.6609    3.9503 hk      1  lig       0.050900
     41 H_14         -7.1109  -44.6277    4.6383 hl      1  lig       0.050900
     42 H_15         -6.9047  -42.9346    5.1216 hm      1  lig       0.050900
     43 H_16         -3.6927  -44.2334    4.7674 hq      1  lig       0.139300
@<TRIPOS>BOND
     1     1     2    2
     2     2     3    1
     3     2     4    1
     4     4     5    1
     5     4    12    2
     6     5     6    1
     7     6     7    2
     8     6    11    1
     9     7     8    1
    10     7    26    1
    11     8     9    2
    12     8    27    1
    13     9    10    1
    14     9    28    1
    15    10    11    2
    16    10    29    1
    17    11    12    1
    18    12    13    1
    19    13    30    1
    20    13    31    1
    21    13    14    1
    22    14    15    1
    23    14    32    1
    24    14    33    1
    25    15    16    1
    26    15    34    1
    27    15    35    1
    28    16    17    1
    29    17    18    2
    30    17    25    1
    31    18    19    1
    32    18    36    1
    33    19    20    1
    34    19    21    2
    35    20    37    1
    36    20    38    1
    37    20    39    1
    38    21    22    1
    39    21    23    1
    40    23    24    1
    41    23    25    2
    42    24    40    1
    43    24    41    1
    44    24    42    1
    45    25    43    1
