@<TRIPOS>MOLECULE
lig
  43   46 0 0 0
SMALL
NO_CHARGES


@<TRIPOS>ATOM
      1 O_00          3.5438  -47.5772    5.7905 o0      1  lig      -0.760400
      2 C_01          3.1835  -48.5307    6.5190 c4      1  lig       0.806700
      3 O_02          3.9583  -48.9716    7.3983 o1      1  lig      -0.723200
      4 C_03          1.8205  -49.1108    6.3417 c5      1  lig      -0.014300
      5 S_04          1.6677  -50.7691    6.8730 s0      1  lig      -0.131900
      6 C_05         -0.0534  -50.7822    6.5135 c6      1  lig      -0.019900
      7 C_06         -0.9252  -51.8582    6.7331 c7      1  lig      -0.178600
      8 C_07         -2.2931  -51.7406    6.4181 c8      1  lig      -0.204400
      9 C_08         -2.7610  -50.5248    5.8913 c9      1  lig      -0.104100
     10 C_09         -1.8910  -49.4330    5.6876 cb      1  lig      -0.044000
     11 C_0a         -0.4943  -49.5299    5.9753 ci      1  lig       0.186200
     12 C_0b          0.6271  -48.5701    5.8889 cj      1  lig      -0.174500
     13 C_0c          0.4730  -47.1115    5.5285 ck      1  lig      -0.003600
     14 C_0d          0.1924  -46.3223    6.8187 cm      1  lig       0.056000
     15 C_0e         -0.5189  -44.9864    6.6239 cn      1  lig      -0.115800
     16 O_0f         -1.8770  -45.1797    6.2416 o2      1  lig      -0.353300
     17 C_0g         -2.8344  -45.2637    7.2315 co      1  lig       0.223600
     18 C_0h         -4.9255  -45.4944    9.1209 cq      1  lig      -0.229400
     19 C_0i         -3.6260  -45.9830    9.4207 cr      1  lig      -0.223800
     20 C_0j         -2.5867  -45.7933    8.5093 cs      1  lig      -0.185600
     21 H_0k         -0.5445  -52.7829    7.1443 h0      1  lig       0.174700
     22 H_0l         -2.9629  -52.5707    6.5722 h6      1  lig       0.137300
     23 H_0m         -3.8074  -50.4318    5.6453 h7      1  lig       0.113900
     24 Cl0n         -2.6124  -47.9686    5.0985 a0      1  lig      -0.131400
     25 H_0o         -0.3095  -46.9567    4.7865 h8      1  lig       0.067400
     26 H_0p          1.3663  -46.7329    5.0246 h9      1  lig       0.067400
     27 H_0q          1.1354  -46.1804    7.3386 hb      1  lig       0.008800
     28 H_0r         -0.4110  -46.9370    7.4640 hd      1  lig       0.008800
     29 H_0s         -0.0242  -44.4093    5.8295 he      1  lig       0.124600
     30 H_0t         -0.4473  -44.3726    7.5269 hf      1  lig       0.124600
     31 H_0u         -1.6007  -46.1009    8.7965 hg      1  lig       0.145700
     32 C_0v         -5.1778  -44.8765    7.8875 ct      1  lig       0.083000
     33 C_0w         -4.1442  -44.7749    6.9318 cw      1  lig       0.129100
     34 C_0x         -4.4214  -44.1639    5.6900 cA      1  lig      -0.182300
     35 C_0y         -5.7020  -43.6469    5.4010 cB      1  lig      -0.158800
     36 C_0z         -6.7289  -43.7443    6.3621 cC      1  lig      -0.159300
     37 C_10         -6.4652  -44.3618    7.6033 cD      1  lig      -0.197200
     38 H_11         -3.6486  -44.0600    4.9342 hh      1  lig       0.136400
     39 H_12         -5.8890  -43.1675    4.4469 hi      1  lig       0.136000
     40 H_13         -7.7027  -43.3379    6.1482 hj      1  lig       0.134600
     41 H_14         -7.2573  -44.4288    8.3269 hk      1  lig       0.131000
     42 H_15         -3.4577  -46.4365   10.3980 hl      1  lig       0.162800
     43 H_16         -5.7255  -45.5994    9.8513 hm      1  lig       0.137200
@<TRIPOS>BOND
     1     1     2    2
     2     2     3    1
     3     2     4    1
     4     4     5    1
     5     4    12    2
     6     5     6    1
     7     6     7    2
     8     6    11    1
     9     7     8    1
    10     7    21    1
    11     8     9    2
    12     8    22    1
    13     9    10    1
    14     9    23    1
    15    10    11    2
    16    10    24    1
    17    11    12    1
    18    12    13    1
    19    13    25    1
    20    13    26    1
    21    13    14    1
    22    14    15    1
    23    14    27    1
    24    14    28    1
    25    15    16    1
    26    15    29    1
    27    15    30    1
    28    16    17    1
    29    17    20    2
    30    17    33    1
    31    18    19    2
    32    18    32    1
    33    18    43    1
    34    19    20    1
    35    19    42    1
    36    20    31    1
    37    32    33    2
    38    32    37    1
    39    33    34    1
    40    34    35    2
    41    34    38    1
    42    35    36    1
    43    35    39    1
    44    36    37    2
    45    36    40    1
    46    37    41    1
