@<TRIPOS>MOLECULE
lig
  43   45 0 0 0
SMALL
NO_CHARGES


@<TRIPOS>ATOM
      1 O_00          3.8904  -49.9128    7.2593 o0      1  lig      -0.710800
      2 C_01          3.1473  -49.0461    6.7409 c4      1  lig       0.773100
      3 O_02          3.5646  -47.8962    6.4882 o1      1  lig      -0.751900
      4 C_03          1.7208  -49.3609    6.4386 c5      1  lig      -0.011300
      5 S_04          1.1474  -50.8838    7.0571 s0      1  lig      -0.139800
      6 C_05         -0.4833  -50.5334    6.5324 c6      1  lig      -0.011400
      7 C_06         -1.6406  -51.2952    6.7763 c7      1  lig      -0.095600
      8 C_07         -2.8824  -50.8186    6.3195 c8      1  lig      -0.027500
      9 C_08         -2.9595  -49.6440    5.5579 c9      1  lig      -0.126300
     10 C_09         -1.7949  -48.9052    5.3019 cb      1  lig      -0.155200
     11 C_0a         -0.5283  -49.2970    5.8096 ci      1  lig       0.055300
     12 C_0b          0.7542  -48.6240    5.7715 cj      1  lig      -0.079800
     13 C_0c          0.9557  -47.2723    5.1257 ck      1  lig       0.051600
     14 C_0d          0.9944  -46.0835    6.1170 cm      1  lig      -0.032900
     15 C_0e         -0.1952  -46.0031    7.0806 cn      1  lig      -0.184300
     16 O_0f         -1.3623  -45.5679    6.3922 o2      1  lig      -0.230800
     17 C_0g         -2.5506  -45.5270    7.0930 co      1  lig       0.110400
     18 C_0h         -2.7548  -46.1613    8.3473 cq      1  lig      -0.183900
     19 C_0i         -4.0188  -46.1288    8.9720 cr      1  lig       0.037000
     20 C_0j         -4.2211  -46.8876   10.2713 cs      1  lig      -0.106000
     21 C_0k         -5.0918  -45.4247    8.3755 ct      1  lig      -0.006500
     22 Cl0l         -6.6499  -45.3836    9.1387 a0      1  lig      -0.154100
     23 C_0m         -4.8818  -44.7661    7.1412 cw      1  lig       0.071000
     24 C_0n         -6.0115  -43.9984    6.4841 cA      1  lig      -0.107600
     25 C_0o         -3.6224  -44.8331    6.5031 cB      1  lig      -0.224800
     26 H_0p         -1.5795  -52.2143    7.3495 h0      1  lig       0.163000
     27 Cl0q         -4.3386  -51.6470    6.7125 a1      1  lig      -0.169300
     28 H_0r         -3.9194  -49.3012    5.2017 h6      1  lig       0.130000
     29 H_0s         -1.8832  -47.9909    4.7442 h7      1  lig       0.150900
     30 H_0t          0.1640  -47.0922    4.3960 h8      1  lig       0.009400
     31 H_0u          1.8698  -47.2667    4.5291 h9      1  lig       0.009400
     32 H_0v          1.0868  -45.1511    5.5646 hb      1  lig       0.060800
     33 H_0w          1.8922  -46.1450    6.7293 hd      1  lig       0.060800
     34 H_0x          0.0117  -45.2867    7.8785 he      1  lig       0.133500
     35 H_0y         -0.3308  -46.9792    7.5505 hf      1  lig       0.133500
     36 H_0z         -1.9638  -46.7103    8.8408 hg      1  lig       0.132300
     37 H_10         -4.7411  -46.2780   11.0120 hh      1  lig       0.048900
     38 H_11         -4.8108  -47.7889   10.0844 hi      1  lig       0.048900
     39 H_12         -3.2644  -47.1869   10.7059 hj      1  lig       0.048900
     40 H_13         -5.6796  -43.4841    5.5791 hk      1  lig       0.046300
     41 H_14         -6.8222  -44.6778    6.2118 hl      1  lig       0.046300
     42 H_15         -6.4107  -43.2477    7.1690 hm      1  lig       0.046300
     43 H_16         -3.4707  -44.3451    5.5472 hq      1  lig       0.142200
@<TRIPOS>BOND
     1     1     2    2
     2     2     3    1
     3     2     4    1
     4     4     5    1
     5     4    12    2
     6     5     6    1
     7     6     7    2
     8     6    11    1
     9     7     8    1
    10     7    26    1
    11     8     9    2
    12     8    27    1
    13     9    10    1
    14     9    28    1
    15    10    11    2
    16    10    29    1
    17    11    12    1
    18    12    13    1
    19    13    30    1
    20    13    31    1
    21    13    14    1
    22    14    15    1
    23    14    32    1
    24    14    33    1
    25    15    16    1
    26    15    34    1
    27    15    35    1
    28    16    17    1
    29    17    18    2
    30    17    25    1
    31    18    19    1
    32    18    36    1
    33    19    20    1
    34    19    21    2
    35    20    37    1
    36    20    38    1
    37    20    39    1
    38    21    22    1
    39    21    23    1
    40    23    24    1
    41    23    25    2
    42    24    40    1
    43    24    41    1
    44    24    42    1
    45    25    43    1
