@<TRIPOS>MOLECULE
lig
  43   46 0 0 0
SMALL
NO_CHARGES


@<TRIPOS>ATOM
      1 O_00          3.7996  -50.0339    7.1693 o0      1  lig      -0.714700
      2 C_01          3.0736  -49.0720    6.8150 c4      1  lig       0.783300
      3 O_02          3.5568  -47.9281    6.7106 o1      1  lig      -0.757700
      4 C_03          1.6291  -49.2883    6.5306 c5      1  lig      -0.010500
      5 S_04          1.0906  -50.9347    6.7544 s0      1  lig      -0.144100
      6 C_05         -0.5531  -50.5009    6.3439 c6      1  lig      -0.009600
      7 C_06         -1.6748  -51.3471    6.3184 c7      1  lig      -0.085300
      8 C_07         -2.9396  -50.8176    5.9964 c8      1  lig      -0.032400
      9 C_08         -3.0703  -49.4498    5.6863 c9      1  lig      -0.113300
     10 C_09         -1.9354  -48.6227    5.6975 cb      1  lig      -0.174100
     11 C_0a         -0.6477  -49.1138    6.0302 ci      1  lig       0.059600
     12 C_0b          0.6267  -48.4212    6.1334 cj      1  lig      -0.090100
     13 C_0c          0.7576  -46.9454    5.8670 ck      1  lig       0.073100
     14 C_0d          0.6927  -46.0787    7.1424 cm      1  lig      -0.020900
     15 C_0e         -0.4919  -46.3659    8.0891 cn      1  lig      -0.215300
     16 O_0f         -1.7426  -45.9685    7.5206 o2      1  lig      -0.180700
     17 C_0g         -2.9139  -46.2506    8.2081 co      1  lig       0.052600
     18 C_0h         -5.3832  -46.7623    9.5425 cq      1  lig      -0.252100
     19 C_0i         -4.2148  -47.4264    9.9411 cr      1  lig      -0.199600
     20 C_0j         -2.9951  -47.1799    9.2808 cs      1  lig      -0.141200
     21 H_0k         -1.5571  -52.3930    6.5589 h0      1  lig       0.159700
     22 Cl0l         -4.3321  -51.8139    5.9914 a0      1  lig      -0.173800
     23 H_0m         -4.0419  -49.0428    5.4468 h6      1  lig       0.131200
     24 H_0n         -2.0589  -47.5784    5.4692 h7      1  lig       0.152900
     25 H_0o         -0.0323  -46.6216    5.1911 h8      1  lig       0.003900
     26 H_0p          1.6817  -46.7381    5.3245 h9      1  lig       0.003900
     27 H_0q          0.7202  -45.0228    6.8726 hb      1  lig       0.055500
     28 H_0r          1.6078  -46.2705    7.7046 hd      1  lig       0.055500
     29 H_0s         -0.3459  -45.8119    9.0163 he      1  lig       0.134600
     30 H_0t         -0.4790  -47.4239    8.3357 hf      1  lig       0.134600
     31 H_0u         -2.1519  -47.7522    9.6092 hg      1  lig       0.125500
     32 C_0v         -5.3384  -45.8553    8.4662 ct      1  lig       0.120400
     33 C_0w         -4.1071  -45.6003    7.7993 cw      1  lig       0.129800
     34 C_0x         -4.0955  -44.6862    6.7189 cA      1  lig      -0.200000
     35 C_0y         -5.2802  -44.0441    6.3080 cB      1  lig      -0.147200
     36 C_0z         -6.4964  -44.3049    6.9742 cC      1  lig      -0.153500
     37 C_10         -6.5207  -45.2090    8.0541 cD      1  lig      -0.209900
     38 H_11         -3.1805  -44.4680    6.1938 hh      1  lig       0.140900
     39 H_12         -5.2589  -43.3516    5.4831 hi      1  lig       0.134000
     40 H_13         -7.4007  -43.8160    6.6574 hj      1  lig       0.135200
     41 H_14         -7.4574  -45.3993    8.5577 hk      1  lig       0.135500
     42 H_15         -4.2479  -48.1459   10.7491 hl      1  lig       0.160700
     43 H_16         -6.3129  -46.9661   10.0585 hm      1  lig       0.143600
@<TRIPOS>BOND
     1     1     2    2
     2     2     3    1
     3     2     4    1
     4     4     5    1
     5     4    12    2
     6     5     6    1
     7     6     7    2
     8     6    11    1
     9     7     8    1
    10     7    21    1
    11     8     9    2
    12     8    22    1
    13     9    10    1
    14     9    23    1
    15    10    11    2
    16    10    24    1
    17    11    12    1
    18    12    13    1
    19    13    25    1
    20    13    26    1
    21    13    14    1
    22    14    15    1
    23    14    27    1
    24    14    28    1
    25    15    16    1
    26    15    29    1
    27    15    30    1
    28    16    17    1
    29    17    20    2
    30    17    33    1
    31    18    19    2
    32    18    32    1
    33    18    43    1
    34    19    20    1
    35    19    42    1
    36    20    31    1
    37    32    33    2
    38    32    37    1
    39    33    34    1
    40    34    35    2
    41    34    38    1
    42    35    36    1
    43    35    39    1
    44    36    37    2
    45    36    40    1
    46    37    41    1
