@<TRIPOS>MOLECULE
lig
  43   45 0 0 0
SMALL
NO_CHARGES


@<TRIPOS>ATOM
      1 O_00          3.9461  -49.6120    7.0490 o0      1  lig      -0.705900
      2 C_01          3.1658  -48.7770    6.5329 c4      1  lig       0.767700
      3 O_02          3.5657  -47.6377    6.1960 o1      1  lig      -0.752400
      4 C_03          1.7275  -49.1194    6.3295 c5      1  lig       0.000700
      5 S_04          1.2733  -50.7336    6.7953 s0      1  lig      -0.130900
      6 C_05         -0.4025  -50.4753    6.3317 c6      1  lig       0.069100
      7 C_06         -1.4791  -51.3860    6.4178 c7      1  lig      -0.032600
      8 C_07         -2.7670  -51.0046    6.0094 c8      1  lig      -0.071400
      9 C_08         -2.9812  -49.7061    5.5114 c9      1  lig      -0.268600
     10 C_09         -1.8984  -48.8064    5.4280 cb      1  lig      -0.109600
     11 C_0a         -0.5804  -49.1464    5.8290 ci      1  lig       0.042800
     12 C_0b          0.6605  -48.3675    5.8411 cj      1  lig      -0.108800
     13 C_0c          0.7551  -46.9299    5.3888 ck      1  lig       0.058800
     14 C_0d          0.8986  -45.9247    6.5503 cm      1  lig      -0.035700
     15 C_0e         -0.2812  -45.9301    7.5188 cn      1  lig      -0.189900
     16 O_0f         -1.3961  -45.3197    6.8689 o2      1  lig      -0.235200
     17 C_0g         -2.6319  -45.4537    7.4519 co      1  lig       0.120500
     18 C_0h         -2.8737  -46.1426    8.6635 cq      1  lig      -0.184200
     19 C_0i         -4.1934  -46.3025    9.1484 cr      1  lig       0.033600
     20 C_0j         -4.4214  -47.0948   10.4168 cs      1  lig      -0.108500
     21 C_0k         -5.2826  -45.7389    8.4364 ct      1  lig      -0.005200
     22 Cl0l         -6.9050  -45.9428    9.0118 a0      1  lig      -0.154700
     23 C_0m         -5.0340  -45.0050    7.2491 cw      1  lig       0.070100
     24 C_0n         -6.1758  -44.3662    6.4856 cA      1  lig      -0.108100
     25 C_0o         -3.7162  -44.8717    6.7646 cB      1  lig      -0.231000
     26 Cl0p         -1.2372  -52.9829    7.0303 a1      1  lig      -0.125700
     27 H_0q         -3.5909  -51.6994    6.0856 h0      1  lig       0.115200
     28 H_0r         -3.9674  -49.3971    5.1973 h6      1  lig       0.152400
     29 H_0s         -2.0864  -47.8164    5.0511 h7      1  lig       0.148600
     30 H_0t         -0.1302  -46.6598    4.8168 h8      1  lig       0.008500
     31 H_0u          1.5882  -46.8012    4.6903 h9      1  lig       0.008500
     32 H_0v          1.0376  -44.9168    6.1530 hb      1  lig       0.063100
     33 H_0w          1.7899  -46.1465    7.1282 hd      1  lig       0.063100
     34 H_0x         -0.0338  -45.3645    8.4141 he      1  lig       0.135300
     35 H_0y         -0.4930  -46.9559    7.8179 hf      1  lig       0.135300
     36 H_0z         -2.0618  -46.5754    9.2316 hg      1  lig       0.133100
     37 H_10         -5.1478  -46.6091   11.0729 hh      1  lig       0.049800
     38 H_11         -4.7955  -48.0883   10.1684 hi      1  lig       0.049800
     39 H_12         -3.4946  -47.2165   10.9839 hj      1  lig       0.049800
     40 H_13         -5.8060  -43.7551    5.6573 hk      1  lig       0.046300
     41 H_14         -6.8417  -45.1281    6.0706 hl      1  lig       0.046300
     42 H_15         -6.7594  -43.7154    7.1422 hm      1  lig       0.046300
     43 H_16         -3.5302  -44.3248    5.8485 hq      1  lig       0.143700
@<TRIPOS>BOND
     1     1     2    2
     2     2     3    1
     3     2     4    1
     4     4     5    1
     5     4    12    2
     6     5     6    1
     7     6     7    2
     8     6    11    1
     9     7     8    1
    10     7    26    1
    11     8     9    2
    12     8    27    1
    13     9    10    1
    14     9    28    1
    15    10    11    2
    16    10    29    1
    17    11    12    1
    18    12    13    1
    19    13    30    1
    20    13    31    1
    21    13    14    1
    22    14    15    1
    23    14    32    1
    24    14    33    1
    25    15    16    1
    26    15    34    1
    27    15    35    1
    28    16    17    1
    29    17    18    2
    30    17    25    1
    31    18    19    1
    32    18    36    1
    33    19    20    1
    34    19    21    2
    35    20    37    1
    36    20    38    1
    37    20    39    1
    38    21    22    1
    39    21    23    1
    40    23    24    1
    41    23    25    2
    42    24    40    1
    43    24    41    1
    44    24    42    1
    45    25    43    1
