@<TRIPOS>MOLECULE
lig
  43   46 0 0 0
SMALL
NO_CHARGES


@<TRIPOS>ATOM
      1 O_00          3.5632  -47.8394    5.6651 o0      1  lig      -0.759200
      2 C_01          3.0547  -48.6446    6.4687 c4      1  lig       0.781300
      3 O_02          3.7176  -49.0437    7.4483 o1      1  lig      -0.710800
      4 C_03          1.6404  -49.0782    6.2866 c5      1  lig      -0.000700
      5 S_04          1.2183  -50.6024    7.0271 s0      1  lig      -0.135800
      6 C_05         -0.4520  -50.4734    6.4812 c6      1  lig       0.084400
      7 C_06         -1.5140  -51.3853    6.6849 c7      1  lig      -0.025600
      8 C_07         -2.8051  -51.0838    6.2163 c8      1  lig      -0.082300
      9 C_08         -3.0350  -49.8729    5.5476 c9      1  lig      -0.256100
     10 C_09         -1.9701  -48.9821    5.3251 cb      1  lig      -0.122200
     11 C_0a         -0.6468  -49.2498    5.7659 ci      1  lig       0.038300
     12 C_0b          0.5741  -48.4756    5.6336 cj      1  lig      -0.120500
     13 C_0c          0.6517  -47.1469    4.9149 ck      1  lig       0.079500
     14 C_0d          0.7584  -45.9333    5.8538 cm      1  lig      -0.026700
     15 C_0e         -0.2819  -45.9205    6.9846 cn      1  lig      -0.215500
     16 O_0f         -1.5969  -45.7351    6.4764 o2      1  lig      -0.189400
     17 C_0g         -2.6622  -45.8427    7.3608 co      1  lig       0.065300
     18 C_0h         -4.8922  -46.0665    9.1171 cq      1  lig      -0.259000
     19 C_0i         -3.6002  -46.3844    9.5752 cr      1  lig      -0.196100
     20 C_0j         -2.4954  -46.2648    8.7080 cs      1  lig      -0.144200
     21 Cl0k         -1.2466  -52.8788    7.5124 a0      1  lig      -0.131300
     22 H_0l         -3.6235  -51.7836    6.3815 h0      1  lig       0.115900
     23 H_0m         -4.0332  -49.6215    5.1991 h6      1  lig       0.152200
     24 H_0n         -2.1703  -48.0560    4.8113 h7      1  lig       0.149900
     25 H_0o         -0.2390  -47.0225    4.3158 h8      1  lig       0.003800
     26 H_0p          1.4901  -47.1452    4.2148 h9      1  lig       0.003800
     27 H_0q          0.7050  -45.0106    5.2760 hb      1  lig       0.058600
     28 H_0r          1.7451  -45.9429    6.3140 hd      1  lig       0.058600
     29 H_0s         -0.0489  -45.1139    7.6769 he      1  lig       0.135600
     30 H_0t         -0.1866  -46.8551    7.5316 hf      1  lig       0.135600
     31 H_0u         -1.5239  -46.5195    9.1169 hg      1  lig       0.125400
     32 C_0v         -5.0761  -45.6435    7.7862 ct      1  lig       0.119000
     33 C_0w         -3.9716  -45.5347    6.9092 cw      1  lig       0.130600
     34 C_0x         -4.1999  -45.1108    5.5812 cA      1  lig      -0.206300
     35 C_0y         -5.4996  -44.7947    5.1453 cB      1  lig      -0.142600
     36 C_0z         -6.5848  -44.9082    6.0206 cC      1  lig      -0.154000
     37 C_10         -6.3755  -45.3310    7.3422 cD      1  lig      -0.210900
     38 H_11         -3.3775  -45.0164    4.8790 hh      1  lig       0.142900
     39 H_12         -5.6642  -44.4657    4.1260 hi      1  lig       0.133000
     40 H_13         -7.5884  -44.6716    5.6855 hj      1  lig       0.134600
     41 H_14         -7.2209  -45.4118    8.0212 hk      1  lig       0.135900
     42 H_15         -3.4519  -46.7173   10.5975 hl      1  lig       0.159800
     43 H_16         -5.7306  -46.1549    9.7980 hm      1  lig       0.145200
@<TRIPOS>BOND
     1     1     2    2
     2     2     3    1
     3     2     4    1
     4     4     5    1
     5     4    12    2
     6     5     6    1
     7     6     7    2
     8     6    11    1
     9     7     8    1
    10     7    21    1
    11     8     9    2
    12     8    22    1
    13     9    10    1
    14     9    23    1
    15    10    11    2
    16    10    24    1
    17    11    12    1
    18    12    13    1
    19    13    25    1
    20    13    26    1
    21    13    14    1
    22    14    15    1
    23    14    27    1
    24    14    28    1
    25    15    16    1
    26    15    29    1
    27    15    30    1
    28    16    17    1
    29    17    20    2
    30    17    33    1
    31    18    19    2
    32    18    32    1
    33    18    43    1
    34    19    20    1
    35    19    42    1
    36    20    31    1
    37    32    33    2
    38    32    37    1
    39    33    34    1
    40    34    35    2
    41    34    38    1
    42    35    36    1
    43    35    39    1
    44    36    37    2
    45    36    40    1
    46    37    41    1
