@<TRIPOS>MOLECULE
lig
  43   45 0 0 0
SMALL
NO_CHARGES


@<TRIPOS>ATOM
      1 O_00          3.5644  -47.8285    6.1892 o0      1  lig      -0.769100
      2 C_01          3.0362  -48.8080    6.7428 c4      1  lig       0.794000
      3 O_02          3.6696  -49.4562    7.6245 o1      1  lig      -0.756900
      4 C_03          1.6425  -49.1600    6.4068 c5      1  lig       0.143500
      5 C_04         -0.1840  -50.4273    6.5471 c6      1  lig       0.308300
      6 C_05         -1.0943  -51.4430    6.8742 c7      1  lig      -0.264400
      7 C_06         -2.3945  -51.3656    6.3648 c8      1  lig      -0.162700
      8 C_07         -2.7687  -50.2873    5.5289 c9      1  lig      -0.258500
      9 C_08         -1.8174  -49.2864    5.2062 cb      1  lig      -0.148600
     10 C_09         -0.4966  -49.3367    5.7159 ci      1  lig       0.011900
     11 C_0a          0.6834  -48.5264    5.6415 cj      1  lig      -0.165600
     12 C_0b          0.8055  -47.2137    4.9079 ck      1  lig       0.039000
     13 C_0c          0.8087  -45.9824    5.8366 cm      1  lig      -0.019700
     14 C_0d         -0.4323  -45.8572    6.7332 cn      1  lig      -0.141800
     15 O_0e         -1.5675  -45.5507    5.9368 o2      1  lig      -0.243800
     16 C_0f         -2.8022  -45.4950    6.5528 co      1  lig       0.157900
     17 C_0g         -3.0327  -45.8036    7.9119 cq      1  lig      -0.198900
     18 C_0h         -4.3369  -45.7633    8.4552 cr      1  lig       0.036000
     19 C_0i         -4.5594  -46.1410    9.9070 cs      1  lig      -0.112200
     20 C_0j         -5.4287  -45.3910    7.6286 ct      1  lig      -0.009000
     21 Cl0k         -7.0379  -45.3587    8.2748 a0      1  lig      -0.156700
     22 C_0l         -5.2055  -45.0557    6.2744 cw      1  lig       0.076500
     23 C_0m         -6.3500  -44.6517    5.3655 cA      1  lig      -0.104700
     24 C_0n         -3.8961  -45.1147    5.7492 cB      1  lig      -0.259100
     25 H_0o         -0.7929  -52.2665    7.5077 h0      1  lig       0.159200
     26 H_0p         -3.1325  -52.1281    6.6074 h6      1  lig       0.135400
     27 H_0q         -3.7691  -50.2255    5.1378 h7      1  lig       0.143800
     28 H_0r         -2.1044  -48.4656    4.5637 h8      1  lig       0.153600
     29 H_0s         -0.0274  -47.1393    4.2087 h9      1  lig       0.011400
     30 H_0t          1.7050  -47.1979    4.3028 hb      1  lig       0.011400
     31 H_0u          0.9167  -45.0844    5.2419 hd      1  lig       0.049100
     32 H_0v          1.6917  -46.0260    6.4709 he      1  lig       0.049100
     33 H_0w         -0.2792  -45.0497    7.4537 hf      1  lig       0.119300
     34 H_0x         -0.5700  -46.7818    7.2955 hg      1  lig       0.119300
     35 H_0y         -2.2274  -46.0944    8.5689 hh      1  lig       0.134700
     36 H_0z         -5.1508  -45.3838   10.4243 hi      1  lig       0.050600
     37 H_10         -5.0939  -47.0887    9.9694 hj      1  lig       0.050600
     38 H_11         -3.6172  -46.2594   10.4265 hk      1  lig       0.050600
     39 H_12         -5.9980  -44.3903    4.3728 hl      1  lig       0.045400
     40 H_13         -7.0611  -45.4708    5.2673 hm      1  lig       0.045400
     41 H_14         -6.8728  -43.7882    5.7746 hq      1  lig       0.045400
     42 H_15         -3.7237  -44.8700    4.7154 hr      1  lig       0.149400
     43 O_16          1.1314  -50.3169    6.9579 o3      1  lig      -0.319100
@<TRIPOS>BOND
     1     1     2    2
     2     2     3    1
     3     2     4    1
     4     4    11    2
     5     4    43    1
     6     5     6    1
     7     5    10    2
     8     5    43    1
     9     6     7    2
    10     6    25    1
    11     7     8    1
    12     7    26    1
    13     8     9    2
    14     8    27    1
    15     9    10    1
    16     9    28    1
    17    10    11    1
    18    11    12    1
    19    12    29    1
    20    12    30    1
    21    12    13    1
    22    13    14    1
    23    13    31    1
    24    13    32    1
    25    14    15    1
    26    14    33    1
    27    14    34    1
    28    15    16    1
    29    16    17    2
    30    16    24    1
    31    17    18    1
    32    17    35    1
    33    18    19    1
    34    18    20    2
    35    19    36    1
    36    19    37    1
    37    19    38    1
    38    20    21    1
    39    20    22    1
    40    22    23    1
    41    22    24    2
    42    23    39    1
    43    23    40    1
    44    23    41    1
    45    24    42    1
