@<TRIPOS>MOLECULE
lig
  43   46 0 0 0
SMALL
NO_CHARGES


@<TRIPOS>ATOM
      1 O_00          3.7726  -49.6838    6.9455 o0      1  lig      -0.755800
      2 C_01          2.9100  -48.7925    6.7501 c4      1  lig       0.795900
      3 O_02          3.2295  -47.5839    6.7163 o1      1  lig      -0.767100
      4 C_03          1.4913  -49.1838    6.5587 c5      1  lig       0.149000
      5 C_04         -0.1868  -50.6387    6.5133 c6      1  lig       0.296000
      6 C_05         -0.9631  -51.8099    6.5963 c7      1  lig      -0.265400
      7 C_06         -2.3546  -51.7196    6.4061 c8      1  lig      -0.129000
      8 C_07         -2.9393  -50.4632    6.1302 c9      1  lig      -0.047800
      9 C_08         -2.1382  -49.2957    6.0374 cb      1  lig      -0.090600
     10 C_09         -0.7392  -49.3608    6.2408 ci      1  lig      -0.041400
     11 C_0a          0.3626  -48.4393    6.2579 cj      1  lig      -0.150700
     12 C_0b          0.2858  -46.9624    5.9975 ck      1  lig       0.050300
     13 C_0c          0.3099  -46.1147    7.2841 cm      1  lig      -0.005900
     14 C_0d         -0.9470  -46.2726    8.1526 cn      1  lig      -0.164400
     15 O_0e         -2.0339  -45.7606    7.3984 o2      1  lig      -0.183800
     16 C_0f         -3.2649  -45.6384    8.0063 co      1  lig       0.077400
     17 C_0g         -5.8320  -45.2982    9.1520 cq      1  lig      -0.252300
     18 C_0h         -4.8424  -46.0260    9.8383 cr      1  lig      -0.202200
     19 C_0i         -3.5646  -46.1963    9.2720 cs      1  lig      -0.142400
     20 H_0j         -0.4810  -52.7477    6.8125 h0      1  lig       0.169100
     21 H_0k         -2.9631  -52.6053    6.4682 h6      1  lig       0.140100
     22 Cl0l         -4.6522  -50.3570    5.9185 a0      1  lig      -0.167600
     23 H_0m         -2.6129  -48.3489    5.8313 h7      1  lig       0.157400
     24 H_0n         -0.6031  -46.7219    5.4163 h8      1  lig       0.008700
     25 H_0o          1.1268  -46.6655    5.3667 h9      1  lig       0.008700
     26 H_0p          0.4122  -45.0603    7.0052 hb      1  lig       0.044300
     27 H_0q          1.1933  -46.3513    7.8811 hd      1  lig       0.044300
     28 H_0r         -0.8331  -45.6975    9.0727 he      1  lig       0.115600
     29 H_0s         -1.1059  -47.3195    8.4132 hf      1  lig       0.115600
     30 H_0t         -2.8349  -46.7583    9.8317 hg      1  lig       0.123500
     31 C_0u         -5.5501  -44.7469    7.8897 ct      1  lig       0.111200
     32 C_0v         -4.2682  -44.9219    7.3124 cw      1  lig       0.111600
     33 C_0w         -4.0002  -44.3707    6.0384 cA      1  lig      -0.205300
     34 C_0x         -4.9987  -43.6492    5.3557 cB      1  lig      -0.133800
     35 C_0y         -6.2700  -43.4716    5.9396 cC      1  lig      -0.157200
     36 C_0z         -6.5447  -44.0200    7.2054 cD      1  lig      -0.196800
     37 H_10         -3.0325  -44.4979    5.5704 hh      1  lig       0.141100
     38 H_11         -4.7838  -43.2318    4.3761 hi      1  lig       0.131000
     39 H_12         -7.0328  -42.9142    5.4103 hj      1  lig       0.134000
     40 H_13         -7.5187  -43.8845    7.6476 hk      1  lig       0.132900
     41 H_14         -5.0576  -46.4517   10.8107 hl      1  lig       0.160900
     42 H_15         -6.8040  -45.1697    9.6054 hm      1  lig       0.145700
     43 O_16          1.1760  -50.5215    6.6916 o3      1  lig      -0.304800
@<TRIPOS>BOND
     1     1     2    2
     2     2     3    1
     3     2     4    1
     4     4    11    2
     5     4    43    1
     6     5     6    1
     7     5    10    2
     8     5    43    1
     9     6     7    2
    10     6    20    1
    11     7     8    1
    12     7    21    1
    13     8     9    2
    14     8    22    1
    15     9    10    1
    16     9    23    1
    17    10    11    1
    18    11    12    1
    19    12    24    1
    20    12    25    1
    21    12    13    1
    22    13    14    1
    23    13    26    1
    24    13    27    1
    25    14    15    1
    26    14    28    1
    27    14    29    1
    28    15    16    1
    29    16    19    2
    30    16    32    1
    31    17    18    2
    32    17    31    1
    33    17    42    1
    34    18    19    1
    35    18    41    1
    36    19    30    1
    37    31    32    2
    38    31    36    1
    39    32    33    1
    40    33    34    2
    41    33    37    1
    42    34    35    1
    43    34    38    1
    44    35    36    2
    45    35    39    1
    46    36    40    1
