@<TRIPOS>MOLECULE
lig
  54   58 0 0 0
SMALL
NO_CHARGES


@<TRIPOS>ATOM
      1 C_00        -14.1558  -48.2618  -16.3270 c4      1  lig       0.478741
      2 C_01        -13.4606  -49.4818  -16.3608 c5      1  lig      -0.089273
      3 C_02        -12.1363  -49.5233  -15.9111 c6      1  lig       0.032446
      4 C_03        -17.7124  -48.6900  -17.6481 c7      1  lig      -0.338811
      5 C_04        -11.3875  -50.7688  -15.9442 c8      1  lig       0.398808
      6 C_05        -16.3609  -48.9327  -17.3848 c9      1  lig       0.069699
      7 C_06        -18.2134  -49.7993  -18.3076 cb      1  lig      -0.017834
      8 N_07        -13.5679  -47.1267  -15.8708 n0      1  lig      -0.596080
      9 C_08        -11.5329  -48.3541  -15.4499 ci      1  lig      -0.333798
     10 C_09        -12.2778  -47.1790  -15.4627 cj      1  lig       0.261459
     11 N_0a        -10.7896  -51.7589  -15.9679 ng      1  lig      -0.464955
     12 N_0b        -15.4846  -48.0850  -16.7456 nr      1  lig      -0.349180
     13 N_0c        -17.1191  -50.6290  -18.4173 nw      1  lig      -0.004687
     14 N_0d        -16.0113  -50.0906  -17.8889 nA      1  lig      -0.103192
     15 C_0e        -17.0224  -51.9676  -19.0227 ck      1  lig       0.036073
     16 C_0f        -16.0770  -52.0189  -20.2358 cm      1  lig      -0.013218
     17 C_0g        -15.0268  -53.0811  -19.9134 cn      1  lig      -0.009630
     18 C_0h        -15.7080  -54.0040  -18.9071 co      1  lig      -0.005219
     19 C_0i        -16.5120  -53.0401  -18.0424 cq      1  lig      -0.036790
     20 H_0j        -13.9147  -50.3870  -16.7236 h0      1  lig       0.001468
     21 H_0k        -18.2642  -47.8019  -17.3777 h6      1  lig       0.214673
     22 H_0l        -10.5022  -48.3376  -15.1226 h7      1  lig       0.170964
     23 H_0m        -11.8236  -46.2512  -15.1710 h8      1  lig       0.095604
     24 H_0n        -15.8146  -47.1562  -16.5260 h9      1  lig       0.306969
     25 H_0o        -18.0267  -52.2279  -19.3525 hb      1  lig       0.061741
     26 H_0p        -15.6308  -51.0533  -20.4732 hd      1  lig       0.016007
     27 H_0q        -16.6381  -52.3407  -21.1114 he      1  lig       0.016007
     28 H_0r        -14.1464  -52.6171  -19.4656 hf      1  lig       0.002249
     29 H_0s        -14.7118  -53.6113  -20.8075 hg      1  lig       0.002250
     30 H_0t        -15.0014  -54.5986  -18.3278 hh      1  lig       0.021045
     31 H_0u        -16.3750  -54.6937  -19.4271 hi      1  lig       0.021045
     32 H_0v        -17.3189  -53.5340  -17.5075 hj      1  lig       0.014874
     33 H_0w        -15.8475  -52.6063  -17.2966 hk      1  lig       0.014874
     34 H_0x        -19.7665  -51.2056  -18.6838 hl      1  lig       0.080368
     35 C_0y        -19.5930  -50.1295  -18.8220 cr      1  lig       0.034128
     36 C_0z        -19.7786  -49.7997  -20.3059 cs      1  lig       0.033912
     37 C_10        -21.3818  -48.5747  -19.2545 ct      1  lig       0.081861
     38 C_11        -20.6572  -49.2817  -18.1061 cw      1  lig      -0.010207
     39 H_12        -19.5015  -50.6295  -20.9601 hm      1  lig       0.048923
     40 H_13        -19.1798  -48.9312  -20.5934 hq      1  lig       0.048923
     41 H_14        -20.9088  -47.6235  -19.4803 hr      1  lig       0.029553
     42 H_15        -22.4343  -48.3815  -19.0377 ht      1  lig       0.029553
     43 H_16        -21.4010  -49.9235  -17.6313 hu      1  lig       0.021667
     44 H_17        -20.1971  -48.6177  -17.3375 hv      1  lig       0.021667
     45 N_18        -21.1933  -49.4742  -20.3870 nB      1  lig      -0.434869
     46 C_19        -21.6185  -48.8907  -21.6685 cA      1  lig       0.032367
     47 C_1a        -23.1249  -48.9697  -21.9709 cB      1  lig       0.075830
     48 O_1b        -22.8468  -49.4905  -23.3408 o0      1  lig      -0.453034
     49 C_1c        -21.4339  -49.7422  -22.9381 cC      1  lig       0.130027
     50 H_1d        -21.2093  -47.8836  -21.7789 hy      1  lig       0.063580
     51 H_1e        -23.6806  -49.7275  -21.4142 hz      1  lig       0.083097
     52 H_1f        -23.6646  -48.0245  -22.0349 hA      1  lig       0.083097
     53 H_1g        -21.2968  -50.8137  -22.7821 hB      1  lig       0.062614
     54 H_1h        -20.7604  -49.3433  -23.6977 hC      1  lig       0.062614
@<TRIPOS>BOND
     1     1     2    2
     2     1     8    1
     3     1    12    1
     4     2     3    1
     5     2    20    1
     6     3     5    1
     7     3     9    2
     8     4     6    1
     9     4     7    2
    10     4    21    1
    11     5    11    3
    12     6    12    1
    13     6    14    2
    14     7    13    1
    15     7    35    1
    16     8    10    2
    17     9    10    1
    18     9    22    1
    19    10    23    1
    20    12    24    1
    21    13    14    1
    22    13    15    1
    23    15    16    1
    24    15    19    1
    25    15    25    1
    26    16    17    1
    27    16    26    1
    28    16    27    1
    29    17    18    1
    30    17    28    1
    31    17    29    1
    32    18    19    1
    33    18    30    1
    34    18    31    1
    35    19    32    1
    36    19    33    1
    37    35    34    1
    38    35    36    1
    39    35    38    1
    40    36    39    1
    41    36    40    1
    42    36    45    1
    43    37    38    1
    44    37    41    1
    45    37    42    1
    46    37    45    1
    47    38    43    1
    48    38    44    1
    49    45    46    1
    50    46    47    1
    51    46    49    1
    52    46    50    1
    53    47    48    1
    54    47    51    1
    55    47    52    1
    56    48    49    1
    57    49    53    1
    58    49    54    1
