@<TRIPOS>MOLECULE
lig
  45   48 0 0 0
SMALL
NO_CHARGES


@<TRIPOS>ATOM
      1 C_00        -14.1558  -48.2618  -16.3270 c4      1  lig       0.482579
      2 C_01        -13.4606  -49.4818  -16.3608 c5      1  lig      -0.085560
      3 C_02        -12.1363  -49.5233  -15.9111 c6      1  lig       0.034181
      4 C_03        -17.7119  -48.6898  -17.6478 c7      1  lig      -0.291077
      5 C_04        -11.3875  -50.7688  -15.9442 c8      1  lig       0.398052
      6 C_05        -16.3606  -48.9327  -17.3847 c9      1  lig       0.085554
      7 C_06        -18.2150  -49.8001  -18.3082 cb      1  lig      -0.089782
      8 N_07        -13.5679  -47.1267  -15.8708 n0      1  lig      -0.604193
      9 C_08        -11.5329  -48.3541  -15.4499 ci      1  lig      -0.340543
     10 C_09        -12.2778  -47.1790  -15.4627 cj      1  lig       0.271697
     11 N_0a        -10.7896  -51.7589  -15.9679 ng      1  lig      -0.464107
     12 N_0b        -15.4846  -48.0850  -16.7456 nr      1  lig      -0.372310
     13 N_0c        -17.1189  -50.6293  -18.4173 nw      1  lig      -0.006514
     14 N_0d        -16.0115  -50.0907  -17.8889 nA      1  lig      -0.102661
     15 C_0e        -17.0224  -51.9676  -19.0227 ck      1  lig       0.047401
     16 C_0f        -16.0769  -52.0190  -20.2358 cm      1  lig      -0.013012
     17 C_0g        -15.0268  -53.0811  -19.9134 cn      1  lig       0.007866
     18 C_0h        -15.7080  -54.0040  -18.9071 co      1  lig      -0.002124
     19 C_0i        -16.5119  -53.0401  -18.0424 cq      1  lig      -0.031826
     20 H_0j        -13.9147  -50.3870  -16.7236 h0      1  lig      -0.001547
     21 H_0k        -18.2642  -47.8019  -17.3776 h6      1  lig       0.176533
     22 H_0l        -10.5022  -48.3376  -15.1226 h7      1  lig       0.172445
     23 H_0m        -11.8236  -46.2512  -15.1710 h8      1  lig       0.094179
     24 H_0n        -15.8146  -47.1562  -16.5260 h9      1  lig       0.321787
     25 H_0o        -18.0262  -52.2269  -19.3519 hb      1  lig       0.044339
     26 H_0p        -15.6308  -51.0533  -20.4732 hd      1  lig       0.010374
     27 H_0q        -16.6382  -52.3407  -21.1114 he      1  lig       0.010374
     28 H_0r        -14.1464  -52.6171  -19.4656 hf      1  lig      -0.001296
     29 H_0s        -14.7118  -53.6113  -20.8075 hg      1  lig      -0.001295
     30 H_0t        -15.0014  -54.5986  -18.3278 hh      1  lig       0.017836
     31 H_0u        -16.3750  -54.6937  -19.4271 hi      1  lig       0.017836
     32 H_0v        -17.3189  -53.5340  -17.5075 hj      1  lig       0.014345
     33 H_0w        -15.8475  -52.6062  -17.2966 hk      1  lig       0.014345
     34 H_0x        -19.7664  -51.2059  -18.6838 hl      1  lig       0.070010
     35 C_0y        -19.5935  -50.1234  -18.8493 cr      1  lig       0.128123
     36 C_0z        -19.6774  -49.7368  -20.3320 cs      1  lig       0.079797
     37 C_10        -21.3289  -48.4246  -19.2166 ct      1  lig       0.134462
     38 C_11        -20.6478  -49.2647  -18.1275 cw      1  lig      -0.111510
     39 H_12        -19.4349  -50.5837  -21.0183 hm      1  lig       0.074887
     40 H_13        -18.9652  -48.9029  -20.5460 hq      1  lig       0.074887
     41 H_14        -20.8123  -47.4385  -19.3113 hr      1  lig       0.049132
     42 H_15        -21.4012  -49.9237  -17.6312 ht      1  lig       0.051352
     43 H_16        -20.1966  -48.6175  -17.3372 hu      1  lig       0.051352
     44 O_17        -21.0676  -49.2201  -20.4463 o0      1  lig      -0.465500
     45 H_18        -22.3962  -48.3067  -19.0293 hv      1  lig       0.049132
@<TRIPOS>BOND
     1     1     2    2
     2     1     8    1
     3     1    12    1
     4     2     3    1
     5     2    20    1
     6     3     5    1
     7     3     9    2
     8     4     6    1
     9     4     7    2
    10     4    21    1
    11     5    11    3
    12     6    12    1
    13     6    14    2
    14     7    13    1
    15     7    35    1
    16     8    10    2
    17     9    10    1
    18     9    22    1
    19    10    23    1
    20    12    24    1
    21    13    14    1
    22    13    15    1
    23    15    16    1
    24    15    19    1
    25    15    25    1
    26    16    17    1
    27    16    26    1
    28    16    27    1
    29    17    18    1
    30    17    28    1
    31    17    29    1
    32    18    19    1
    33    18    30    1
    34    18    31    1
    35    19    32    1
    36    19    33    1
    37    35    34    1
    38    35    36    1
    39    35    38    1
    40    36    39    1
    41    36    40    1
    42    36    44    1
    43    37    38    1
    44    37    41    1
    45    37    44    1
    46    37    45    1
    47    38    42    1
    48    38    43    1
