@<TRIPOS>MOLECULE
lig
  45   47 0 0 0
SMALL
NO_CHARGES


@<TRIPOS>ATOM
      1 C_00        -14.1552  -48.2612  -16.3267 c4      1  lig       0.592408
      2 C_01        -13.4606  -49.4814  -16.3603 c5      1  lig      -0.246235
      3 C_02        -12.1364  -49.5236  -15.9103 c6      1  lig       0.065523
      4 C_03        -17.7112  -48.6876  -17.6483 c7      1  lig      -0.310911
      5 C_04        -11.3881  -50.7694  -15.9433 c8      1  lig       0.378580
      6 C_05        -16.3601  -48.9311  -17.3850 c9      1  lig       0.177063
      7 C_06        -18.2143  -49.7981  -18.3089 cb      1  lig       0.000459
      8 N_07        -13.5670  -47.1263  -15.8703 n0      1  lig      -0.627353
      9 C_08        -11.5326  -48.3546  -15.4489 ci      1  lig      -0.329826
     10 C_09        -12.2770  -47.1792  -15.4619 cj      1  lig       0.271018
     11 N_0a        -10.7906  -51.7597  -15.9669 ng      1  lig      -0.457464
     12 N_0b        -15.4838  -48.0838  -16.7456 nr      1  lig      -0.419082
     13 N_0c        -17.1189  -50.6274  -18.4177 nw      1  lig       0.089060
     14 N_0d        -16.0113  -50.0892  -17.8891 nA      1  lig      -0.352132
     15 C_0e        -17.0228  -51.9657  -19.0230 ck      1  lig       0.182713
     16 C_0f        -16.0771  -52.0176  -20.2359 cm      1  lig      -0.256568
     17 C_0g        -16.5130  -53.0385  -18.0427 cn      1  lig      -0.342044
     18 C_0h        -19.5961  -50.1370  -18.8477 co      1  lig       0.043129
     19 C_0i        -19.7197  -49.8608  -20.3609 cq      1  lig      -0.120371
     20 C_0j        -21.0786  -50.3030  -20.9280 cr      1  lig       0.147428
     21 N_0k        -22.1538  -49.6905  -20.0769 nB      1  lig      -0.715216
     22 C_0l        -22.1082  -49.9207  -18.5955 cs      1  lig       0.206158
     23 C_0m        -20.7390  -49.4372  -18.0942 ct      1  lig      -0.208652
     24 H_0n        -13.9149  -50.3865  -16.7232 h0      1  lig       0.135968
     25 H_0o        -18.2632  -47.7995  -17.3783 h6      1  lig       0.167219
     26 H_0p        -10.5020  -48.3385  -15.1214 h7      1  lig       0.165003
     27 H_0q        -11.8225  -46.2516  -15.1702 h8      1  lig       0.093283
     28 H_0r        -15.8136  -47.1549  -16.5261 h9      1  lig       0.320841
     29 H_0s        -18.0267  -52.2246  -19.3525 hb      1  lig       0.037319
     30 H_0t        -15.6305  -51.0520  -20.4732 hd      1  lig       0.077240
     31 H_0u        -16.6382  -52.3390  -21.1117 he      1  lig       0.077240
     32 H_0v        -17.3203  -53.5320  -17.5080 hf      1  lig       0.099473
     33 H_0w        -15.8486  -52.6049  -17.2967 hg      1  lig       0.099473
     34 H_0x        -19.7665  -51.2028  -18.6848 hh      1  lig       0.070557
     35 H_0y        -18.9297  -50.3852  -20.8964 hi      1  lig       0.071495
     36 H_0z        -19.5672  -48.7990  -20.5631 hj      1  lig       0.071495
     37 H_10        -21.2176  -51.3837  -20.8553 hk      1  lig       0.010088
     38 H_11        -21.1962  -49.9891  -21.9657 hl      1  lig       0.010088
     39 H_12        -22.2512  -50.9934  -18.4469 hm      1  lig      -0.000853
     40 H_13        -22.9128  -49.3736  -18.1042 hq      1  lig      -0.000853
     41 H_14        -20.6642  -48.3547  -18.2116 hr      1  lig       0.094409
     42 H_15        -20.6602  -49.6259  -17.0234 ht      1  lig       0.094409
     43 H_16        -15.2833  -52.7378  -20.0378 hu      1  lig       0.077240
     44 H_17        -15.9595  -53.7895  -18.6064 hv      1  lig       0.099473
     45 H_18        -23.0676  -49.9493  -20.4258 hy      1  lig       0.361708
@<TRIPOS>BOND
     1     1     2    2
     2     1     8    1
     3     1    12    1
     4     2     3    1
     5     2    24    1
     6     3     5    1
     7     3     9    2
     8     4     6    1
     9     4     7    2
    10     4    25    1
    11     5    11    3
    12     6    12    1
    13     6    14    2
    14     7    13    1
    15     7    18    1
    16     8    10    2
    17     9    10    1
    18     9    26    1
    19    10    27    1
    20    12    28    1
    21    13    14    1
    22    13    15    1
    23    15    16    1
    24    15    17    1
    25    15    29    1
    26    16    30    1
    27    16    31    1
    28    16    43    1
    29    17    32    1
    30    17    33    1
    31    17    44    1
    32    18    19    1
    33    18    23    1
    34    18    34    1
    35    19    20    1
    36    19    35    1
    37    19    36    1
    38    20    21    1
    39    20    37    1
    40    20    38    1
    41    21    22    1
    42    21    45    1
    43    22    23    1
    44    22    39    1
    45    22    40    1
    46    23    41    1
    47    23    42    1
