@<TRIPOS>MOLECULE
lig
  50   53 0 0 0
SMALL
NO_CHARGES


@<TRIPOS>ATOM
      1 C_00        -14.1552  -48.2612  -16.3267 c4      1  lig       0.552413
      2 C_01        -13.4606  -49.4814  -16.3603 c5      1  lig      -0.244409
      3 C_02        -12.1364  -49.5236  -15.9103 c6      1  lig       0.077104
      4 C_03        -17.7112  -48.6876  -17.6483 c7      1  lig      -0.310871
      5 C_04        -11.3881  -50.7694  -15.9433 c8      1  lig       0.363703
      6 C_05        -16.3601  -48.9311  -17.3850 c9      1  lig       0.169293
      7 C_06        -18.2147  -49.7977  -18.3089 cb      1  lig      -0.029730
      8 N_07        -13.5670  -47.1263  -15.8703 n0      1  lig      -0.606743
      9 C_08        -11.5326  -48.3546  -15.4489 ci      1  lig      -0.307496
     10 C_09        -12.2770  -47.1792  -15.4619 cj      1  lig       0.271150
     11 N_0a        -10.7906  -51.7597  -15.9669 ng      1  lig      -0.434509
     12 N_0b        -15.4838  -48.0838  -16.7456 nr      1  lig      -0.426418
     13 N_0c        -17.1189  -50.6274  -18.4177 nw      1  lig      -0.004935
     14 N_0d        -16.0113  -50.0892  -17.8891 nA      1  lig      -0.206290
     15 C_0e        -17.0228  -51.9657  -19.0230 ck      1  lig       0.056333
     16 C_0f        -16.0771  -52.0176  -20.2359 cm      1  lig      -0.073890
     17 C_0g        -15.0275  -53.0801  -19.9132 cn      1  lig      -0.012165
     18 C_0h        -15.7094  -54.0027  -18.9072 co      1  lig      -0.009263
     19 C_0i        -16.5130  -53.0385  -18.0427 cq      1  lig      -0.028849
     20 C_0j        -19.5959  -50.1372  -18.8477 cr      1  lig       0.025360
     21 C_0k        -19.7198  -49.8608  -20.3609 cs      1  lig       0.004003
     22 C_0l        -21.0783  -50.3032  -20.9284 ct      1  lig      -0.006379
     23 N_0m        -22.2144  -49.6412  -20.1126 nB      1  lig      -0.125096
     24 C_0n        -22.1083  -49.9208  -18.5951 cw      1  lig      -0.012822
     25 C_0o        -20.7390  -49.4372  -18.0942 cA      1  lig       0.009845
     26 H_0p        -13.9149  -50.3865  -16.7232 h0      1  lig       0.127851
     27 H_0q        -18.2632  -47.7995  -17.3783 h6      1  lig       0.176270
     28 H_0r        -10.5020  -48.3385  -15.1214 h7      1  lig       0.172727
     29 H_0s        -11.8225  -46.2516  -15.1702 h8      1  lig       0.102399
     30 H_0t        -15.8136  -47.1549  -16.5261 h9      1  lig       0.331481
     31 H_0u        -18.0267  -52.2246  -19.3525 hb      1  lig       0.048190
     32 H_0v        -15.6305  -51.0520  -20.4732 hd      1  lig       0.034551
     33 H_0w        -16.6382  -52.3390  -21.1117 he      1  lig       0.034551
     34 H_0x        -14.1470  -52.6165  -19.4653 hf      1  lig       0.019664
     35 H_0y        -14.7125  -53.6104  -20.8074 hg      1  lig       0.019664
     36 H_0z        -15.0031  -54.5976  -18.3277 hh      1  lig       0.026170
     37 H_10        -16.3765  -54.6921  -19.4273 hi      1  lig       0.026170
     38 H_11        -17.3203  -53.5320  -17.5080 hj      1  lig       0.022162
     39 H_12        -15.8486  -52.6049  -17.2967 hk      1  lig       0.022162
     40 H_13        -19.7665  -51.2028  -18.6848 hl      1  lig       0.065897
     41 H_14        -18.9297  -50.3852  -20.8963 hm      1  lig       0.042816
     42 H_15        -19.5672  -48.7990  -20.5631 hq      1  lig       0.042816
     43 H_16        -21.2176  -51.3837  -20.8553 hr      1  lig       0.089321
     44 H_17        -21.1962  -49.9891  -21.9657 ht      1  lig       0.089321
     45 H_18        -22.2512  -50.9934  -18.4470 hu      1  lig       0.090491
     46 H_19        -22.9127  -49.3736  -18.1042 hv      1  lig       0.090491
     47 H_1a        -20.6642  -48.3547  -18.2116 hy      1  lig       0.050147
     48 H_1b        -20.6602  -49.6259  -17.0234 hz      1  lig       0.050147
     49 H_1c        -22.1512  -48.6367  -20.2412 hA      1  lig       0.267601
     50 H_1d        -23.1072  -49.9683  -20.4531 hB      1  lig       0.267601
@<TRIPOS>BOND
     1     1     2    2
     2     1     8    1
     3     1    12    1
     4     2     3    1
     5     2    26    1
     6     3     5    1
     7     3     9    2
     8     4     6    1
     9     4     7    2
    10     4    27    1
    11     5    11    3
    12     6    12    1
    13     6    14    2
    14     7    13    1
    15     7    20    1
    16     8    10    2
    17     9    10    1
    18     9    28    1
    19    10    29    1
    20    12    30    1
    21    13    14    1
    22    13    15    1
    23    15    16    1
    24    15    19    1
    25    15    31    1
    26    16    17    1
    27    16    32    1
    28    16    33    1
    29    17    18    1
    30    17    34    1
    31    17    35    1
    32    18    19    1
    33    18    36    1
    34    18    37    1
    35    19    38    1
    36    19    39    1
    37    20    21    1
    38    20    25    1
    39    20    40    1
    40    21    22    1
    41    21    41    1
    42    21    42    1
    43    22    23    1
    44    22    43    1
    45    22    44    1
    46    23    24    1
    47    23    49    1
    48    23    50    1
    49    24    25    1
    50    24    45    1
    51    24    46    1
    52    25    47    1
    53    25    48    1
