@<TRIPOS>MOLECULE
lig
  50   52 0 0 0
SMALL
NO_CHARGES


@<TRIPOS>ATOM
      1 C_00        -14.1552  -48.2612  -16.3267 c4      1  lig       0.593880
      2 C_01        -13.4606  -49.4814  -16.3603 c5      1  lig      -0.250967
      3 C_02        -12.1364  -49.5236  -15.9103 c6      1  lig       0.070254
      4 C_03        -17.7112  -48.6876  -17.6483 c7      1  lig      -0.332039
      5 C_04        -11.3881  -50.7694  -15.9433 c8      1  lig       0.374641
      6 C_05        -16.3601  -48.9311  -17.3850 c9      1  lig       0.213346
      7 C_06        -18.2147  -49.7977  -18.3089 cb      1  lig      -0.024601
      8 N_07        -13.5670  -47.1263  -15.8703 n0      1  lig      -0.625018
      9 C_08        -11.5326  -48.3546  -15.4489 ci      1  lig      -0.329353
     10 C_09        -12.2770  -47.1792  -15.4619 cj      1  lig       0.270673
     11 N_0a        -10.7906  -51.7597  -15.9669 ng      1  lig      -0.454392
     12 N_0b        -15.4838  -48.0838  -16.7456 nr      1  lig      -0.436348
     13 N_0c        -17.1189  -50.6274  -18.4177 nw      1  lig       0.087437
     14 N_0d        -16.0113  -50.0892  -17.8891 nA      1  lig      -0.354682
     15 C_0e        -17.0228  -51.9657  -19.0230 ck      1  lig       0.168913
     16 C_0f        -16.0771  -52.0176  -20.2359 cm      1  lig      -0.197134
     17 C_0g        -16.5130  -53.0385  -18.0427 cn      1  lig      -0.300523
     18 C_0h        -19.5959  -50.1372  -18.8477 co      1  lig       0.043844
     19 C_0i        -19.7198  -49.8608  -20.3609 cq      1  lig      -0.044191
     20 C_0j        -21.0783  -50.3032  -20.9284 cr      1  lig      -0.024655
     21 C_0k        -22.1083  -49.9208  -18.5951 cs      1  lig      -0.006874
     22 C_0l        -20.7390  -49.4372  -18.0942 ct      1  lig      -0.113449
     23 H_0m        -13.9149  -50.3865  -16.7232 h0      1  lig       0.135961
     24 H_0n        -18.2632  -47.7995  -17.3783 h6      1  lig       0.171862
     25 H_0o        -10.5020  -48.3385  -15.1214 h7      1  lig       0.165986
     26 H_0p        -11.8225  -46.2516  -15.1702 h8      1  lig       0.094685
     27 H_0q        -15.8136  -47.1549  -16.5261 h9      1  lig       0.326329
     28 H_0r        -18.0267  -52.2246  -19.3525 hb      1  lig       0.040429
     29 H_0s        -15.6305  -51.0520  -20.4732 hd      1  lig       0.061356
     30 H_0t        -16.6382  -52.3390  -21.1117 he      1  lig       0.061356
     31 H_0u        -17.3203  -53.5320  -17.5080 hf      1  lig       0.088592
     32 H_0v        -15.8486  -52.6049  -17.2967 hg      1  lig       0.088592
     33 H_0w        -19.7665  -51.2028  -18.6848 hh      1  lig       0.065741
     34 H_0x        -18.9297  -50.3852  -20.8963 hi      1  lig       0.049224
     35 H_0y        -19.5672  -48.7990  -20.5631 hj      1  lig       0.049224
     36 H_0z        -21.2176  -51.3837  -20.8553 hk      1  lig       0.045003
     37 H_10        -21.1962  -49.9891  -21.9657 hl      1  lig       0.045003
     38 H_11        -22.2512  -50.9934  -18.4470 hm      1  lig       0.062468
     39 H_12        -22.9127  -49.3736  -18.1042 hq      1  lig       0.062468
     40 H_13        -20.6642  -48.3547  -18.2116 hr      1  lig       0.078953
     41 H_14        -20.6602  -49.6259  -17.0234 ht      1  lig       0.078953
     42 H_15        -15.2833  -52.7378  -20.0378 hu      1  lig       0.061356
     43 H_16        -15.9595  -53.7895  -18.6064 hv      1  lig       0.088592
     44 C_17        -23.1084  -48.9509  -20.7102 cw      1  lig       0.593307
     45 N_18        -22.1436  -49.6949  -20.0726 nB      1  lig      -0.292035
     46 O_19        -24.0109  -48.4234  -20.0744 o0      1  lig      -0.585353
     47 C_1a        -22.9609  -48.8448  -22.2214 cA      1  lig      -0.096441
     48 H_1b        -23.7934  -48.2217  -22.6345 hy      1  lig       0.043209
     49 H_1c        -21.9797  -48.3670  -22.4677 hz      1  lig       0.043209
     50 H_1d        -23.0014  -49.8678  -22.6728 hA      1  lig       0.043209
@<TRIPOS>BOND
     1     1     2    2
     2     1     8    1
     3     1    12    1
     4     2     3    1
     5     2    23    1
     6     3     5    1
     7     3     9    2
     8     4     6    1
     9     4     7    2
    10     4    24    1
    11     5    11    3
    12     6    12    1
    13     6    14    2
    14     7    13    1
    15     7    18    1
    16     8    10    2
    17     9    10    1
    18     9    25    1
    19    10    26    1
    20    12    27    1
    21    13    14    1
    22    13    15    1
    23    15    16    1
    24    15    17    1
    25    15    28    1
    26    16    29    1
    27    16    30    1
    28    16    42    1
    29    17    31    1
    30    17    32    1
    31    17    43    1
    32    18    19    1
    33    18    22    1
    34    18    33    1
    35    19    20    1
    36    19    34    1
    37    19    35    1
    38    20    36    1
    39    20    37    1
    40    20    45    1
    41    21    22    1
    42    21    38    1
    43    21    39    1
    44    21    45    1
    45    22    40    1
    46    22    41    1
    47    44    45    1
    48    44    46    2
    49    44    47    1
    50    47    48    1
    51    47    49    1
    52    47    50    1
