@<TRIPOS>MOLECULE
lig
  37   39 0 0 0
SMALL
NO_CHARGES


@<TRIPOS>ATOM
      1 O_00         27.5742    1.5579  -11.2202 o0      1  lig      -0.602654
      2 C_01         27.1479    0.2994  -11.6692 c4      1  lig       0.174672
      3 C_02         26.5267    0.4129  -13.0689 c5      1  lig       0.038845
      4 C_03         25.0255    0.5956  -12.8327 c6      1  lig      -0.088823
      5 C_04         24.8103   -0.0581  -11.4965 c7      1  lig       0.040503
      6 C_05         26.0181   -0.2298  -10.8141 c8      1  lig      -0.047899
      7 C_06         26.0198   -0.7704   -9.5145 c9      1  lig      -0.006700
      8 C_07         24.8035   -1.0882   -8.9011 cb      1  lig      -0.207861
      9 C_08         23.6009   -0.9385   -9.5957 ci      1  lig      -0.175193
     10 C_09         23.6036   -0.4366  -10.9003 cj      1  lig       0.172881
     11 O_0a         22.4827   -0.2805  -11.6905 o1      1  lig      -0.240302
     12 C_0b         21.2459   -0.5698  -11.1900 ck      1  lig       0.074578
     13 C_0c         20.6773   -1.8289  -11.4014 cm      1  lig      -0.131675
     14 C_0d         19.4177   -2.1113  -10.8689 cn      1  lig       0.159645
     15 F_0e         18.8580   -3.3210  -11.0596 f0      1  lig      -0.168418
     16 C_0f         18.7347   -1.1397  -10.1326 co      1  lig      -0.049547
     17 C_0g         19.2914    0.1220   -9.9508 cq      1  lig      -0.141924
     18 Cl0h         18.4240    1.3427   -9.0840 a0      1  lig      -0.061632
     19 C_0i         20.5582    0.4039  -10.4599 cr      1  lig      -0.016122
     20 S_0j         27.5319   -1.0654   -8.5874 s0      1  lig       0.806606
     21 O_0k         27.2277   -2.0226   -7.5192 o2      1  lig      -0.504370
     22 O_0l         28.5861   -1.3956   -9.5458 o3      1  lig      -0.497143
     23 C_0m         27.9385    0.6243   -7.8274 cs      1  lig       0.118060
     24 F_0n         27.8181    1.5522   -8.7360 f1      1  lig      -0.132668
     25 F_0o         27.1029    0.8106   -6.7934 f2      1  lig      -0.147799
     26 H_0p         28.3584    1.8102  -11.7281 h0      1  lig       0.373950
     27 H_0q         27.9789   -0.4080  -11.7029 h6      1  lig       0.077845
     28 H_0r         26.6995   -0.5291  -13.6482 h7      1  lig       0.016807
     29 H_0s         26.9532    1.2021  -13.6359 h8      1  lig       0.016807
     30 H_0t         24.7973    1.6781  -12.7806 h9      1  lig       0.061104
     31 H_0u         24.4358    0.1715  -13.6220 hb      1  lig       0.061104
     32 H_0v         24.7794   -1.4657   -7.8911 hd      1  lig       0.198397
     33 H_0w         22.6812   -1.2310   -9.1144 he      1  lig       0.169099
     34 H_0x         21.2080   -2.5850  -11.9555 hf      1  lig       0.166214
     35 H_0y         17.7898   -1.3917   -9.6972 hg      1  lig       0.150930
     36 H_0z         20.9983    1.3636  -10.2576 hh      1  lig       0.141030
     37 H_10         28.9678    0.5905   -7.4583 hi      1  lig       0.201653
@<TRIPOS>BOND
     1     1     2    1
     2     1    26    1
     3     2     3    1
     4     2     6    1
     5     2    27    1
     6     3     4    1
     7     3    28    1
     8     3    29    1
     9     4     5    1
    10     4    30    1
    11     4    31    1
    12     5     6    2
    13     5    10    1
    14     6     7    1
    15     7     8    2
    16     7    20    1
    17     8     9    1
    18     8    32    1
    19     9    10    2
    20     9    33    1
    21    10    11    1
    22    11    12    1
    23    12    13    2
    24    12    19    1
    25    13    14    1
    26    13    34    1
    27    14    15    1
    28    14    16    2
    29    16    17    1
    30    16    35    1
    31    17    18    1
    32    17    19    2
    33    19    36    1
    34    20    21    2
    35    20    22    2
    36    20    23    1
    37    23    24    1
    38    23    25    1
    39    23    37    1
