@<TRIPOS>MOLECULE
lig
  32   33 0 0 0
SMALL
NO_CHARGES


@<TRIPOS>ATOM
      1 C_00         24.8310   -0.0580  -11.4927 c4      1  lig       0.025753
      2 C_01         26.0235   -0.2330  -10.7891 c5      1  lig      -0.132717
      3 C_02         25.9987   -0.7743   -9.5096 c6      1  lig       0.008872
      4 C_03         24.7856   -1.0874   -8.8994 c7      1  lig      -0.162242
      5 C_04         23.6010   -0.9335   -9.6065 c8      1  lig      -0.150471
      6 C_05         23.6090   -0.4396  -10.9170 c9      1  lig       0.146564
      7 O_06         22.4819   -0.2891  -11.6902 o0      1  lig      -0.229903
      8 C_07         21.2436   -0.5778  -11.1838 cb      1  lig       0.070871
      9 C_08         20.6717   -1.8245  -11.3930 ci      1  lig      -0.129086
     10 C_09         19.4142   -2.1154  -10.8705 cj      1  lig       0.170016
     11 C_0a         18.7356   -1.1376  -10.1307 ck      1  lig      -0.063971
     12 C_0b         19.2836    0.1166   -9.9443 cm      1  lig      -0.109648
     13 Cl0c         18.4182    1.3429   -9.0771 a0      1  lig      -0.061432
     14 C_0d         20.5528    0.3972  -10.4460 cn      1  lig      -0.020926
     15 S_0e         27.5088   -1.0841   -8.6332 s0      1  lig       0.803807
     16 O_0f         27.2224   -2.0236   -7.5339 o1      1  lig      -0.481326
     17 O_0g         28.5286   -1.4187   -9.6099 o2      1  lig      -0.477122
     18 C_0h         27.9364    0.5884   -7.9114 co      1  lig       0.316796
     19 F_0i         27.0434    0.9305   -6.9901 f0      1  lig      -0.127516
     20 F_0j         29.1248    0.3945   -7.3800 f1      1  lig      -0.085236
     21 C_0k         24.8632    0.5892  -12.8609 cq      1  lig       0.305058
     22 F_0l         18.8482   -3.3161  -11.0632 f2      1  lig      -0.167327
     23 F_0m         28.0161    1.4963   -8.8897 f3      1  lig      -0.113203
     24 F_0n         24.9720    1.8976  -12.6428 f4      1  lig      -0.208249
     25 F_0o         25.8923    0.1745  -13.6008 f5      1  lig      -0.201711
     26 H_0p         26.9738    0.0481  -11.2370 h0      1  lig       0.166886
     27 H_0q         24.7621   -1.4743   -7.8944 h6      1  lig       0.191143
     28 H_0r         22.6769   -1.2285   -9.1344 h7      1  lig       0.164314
     29 H_0s         21.2027   -2.5903  -11.9465 h8      1  lig       0.164382
     30 H_0t         17.7913   -1.4073   -9.6929 h9      1  lig       0.152383
     31 H_0u         20.9858    1.3555  -10.2466 hb      1  lig       0.135958
     32 H_0v         23.9655    0.4033  -13.4518 hd      1  lig       0.099283
@<TRIPOS>BOND
     1     1     2    2
     2     1     6    1
     3     1    21    1
     4     2     3    1
     5     2    26    1
     6     3     4    2
     7     3    15    1
     8     4     5    1
     9     4    27    1
    10     5     6    2
    11     5    28    1
    12     6     7    1
    13     7     8    1
    14     8     9    2
    15     8    14    1
    16     9    10    1
    17     9    29    1
    18    10    11    2
    19    10    22    1
    20    11    12    1
    21    11    30    1
    22    12    13    1
    23    12    14    2
    24    14    31    1
    25    15    16    2
    26    15    17    2
    27    15    18    1
    28    18    19    1
    29    18    20    1
    30    18    23    1
    31    21    24    1
    32    21    25    1
    33    21    32    1
