@<TRIPOS>MOLECULE
lig
  38   40 0 0 0
SMALL
NO_CHARGES


@<TRIPOS>ATOM
      1 O_00         27.5645    1.5617  -11.2470 o0      1  lig      -0.585344
      2 C_01         27.1438    0.2894  -11.6866 c4      1  lig       0.045807
      3 C_02         26.5069    0.3556  -13.0757 c5      1  lig       0.391809
      4 C_03         25.0262    0.5977  -12.8413 c6      1  lig      -0.066860
      5 C_04         24.8031   -0.0727  -11.5007 c7      1  lig       0.025360
      6 C_05         26.0146   -0.2359  -10.8163 c8      1  lig      -0.023681
      7 C_06         26.0213   -0.7692   -9.5151 c9      1  lig       0.036923
      8 C_07         24.8049   -1.0873   -8.9042 cb      1  lig      -0.172906
      9 C_08         23.6051   -0.9368   -9.5930 ci      1  lig      -0.199488
     10 C_09         23.6014   -0.4415  -10.9017 cj      1  lig       0.175533
     11 O_0a         22.4836   -0.2868  -11.6891 o1      1  lig      -0.232229
     12 C_0b         21.2430   -0.5721  -11.1917 ck      1  lig       0.078495
     13 C_0c         20.6758   -1.8287  -11.4014 cm      1  lig      -0.096489
     14 C_0d         19.4200   -2.1085  -10.8706 cn      1  lig       0.175244
     15 F_0e         18.8549   -3.3186  -11.0589 f0      1  lig      -0.165471
     16 C_0f         18.7372   -1.1390  -10.1439 co      1  lig      -0.131387
     17 C_0g         19.2837    0.1313   -9.9594 cq      1  lig      -0.097485
     18 C_0h         18.5786    1.1709   -9.2254 cr      1  lig       0.363685
     19 C_0i         20.5524    0.3981  -10.4669 cs      1  lig      -0.101958
     20 S_0j         27.5332   -1.0635   -8.5894 s0      1  lig       0.806851
     21 O_0k         27.2225   -2.0202   -7.5218 o2      1  lig      -0.516133
     22 O_0l         28.5866   -1.4048   -9.5424 o3      1  lig      -0.503841
     23 C_0m         27.9649    0.6070   -7.8096 ct      1  lig       0.187491
     24 F_0n         27.9127    1.5706   -8.7312 f1      1  lig      -0.142850
     25 F_0o         27.1075    0.8491   -6.8159 f2      1  lig      -0.169247
     26 F_0p         27.0532    1.2940  -13.8508 f3      1  lig      -0.221157
     27 F_0q         26.6473   -0.8235  -13.6788 f4      1  lig      -0.236368
     28 N_0r         18.0226    1.9829   -8.6098 n0      1  lig      -0.432779
     29 H_0s         28.3466    1.8345  -11.7534 h0      1  lig       0.420975
     30 H_0t         27.9838   -0.4055  -11.7093 h6      1  lig       0.152150
     31 H_0u         24.4086    0.1833  -13.6391 h7      1  lig       0.079546
     32 H_0v         24.8053    1.6637  -12.7779 h8      1  lig       0.079546
     33 H_0w         24.7815   -1.4717   -7.8954 h9      1  lig       0.191710
     34 H_0x         22.6864   -1.2351   -9.1095 hb      1  lig       0.176320
     35 H_0y         21.2089   -2.5934  -11.9466 hd      1  lig       0.163939
     36 H_0z         17.7966   -1.4127   -9.7040 he      1  lig       0.184642
     37 H_10         21.0132    1.3531  -10.2641 hf      1  lig       0.178670
     38 H_11         28.9783    0.5461   -7.4245 hg      1  lig       0.180977
@<TRIPOS>BOND
     1     1     2    1
     2     1    29    1
     3     2     3    1
     4     2     6    1
     5     2    30    1
     6     3     4    1
     7     3    26    1
     8     3    27    1
     9     4     5    1
    10     4    31    1
    11     4    32    1
    12     5     6    2
    13     5    10    1
    14     6     7    1
    15     7     8    2
    16     7    20    1
    17     8     9    1
    18     8    33    1
    19     9    10    2
    20     9    34    1
    21    10    11    1
    22    11    12    1
    23    12    13    2
    24    12    19    1
    25    13    14    1
    26    13    35    1
    27    14    15    1
    28    14    16    2
    29    16    17    1
    30    16    36    1
    31    17    18    1
    32    17    19    2
    33    18    28    3
    34    19    37    1
    35    20    21    2
    36    20    22    2
    37    20    23    1
    38    23    24    1
    39    23    25    1
    40    23    38    1
