@<TRIPOS>MOLECULE
lig
  38   40 0 0 0
SMALL
NO_CHARGES


@<TRIPOS>ATOM
      1 O_00         27.5494    1.5659  -11.2067 o0      1  lig      -0.603047
      2 C_01         27.1387    0.3127  -11.6756 c4      1  lig       0.172439
      3 C_02         26.5195    0.3859  -13.0738 c5      1  lig       0.042342
      4 C_03         25.0304    0.6044  -12.8406 c6      1  lig      -0.083403
      5 C_04         24.8061   -0.0723  -11.5018 c7      1  lig       0.044751
      6 C_05         26.0164   -0.2280  -10.8172 c8      1  lig      -0.050557
      7 C_06         26.0250   -0.7653   -9.5189 c9      1  lig      -0.000703
      8 C_07         24.8069   -1.0884   -8.9105 cb      1  lig      -0.206949
      9 C_08         23.6125   -0.9394   -9.5957 ci      1  lig      -0.164485
     10 C_09         23.6090   -0.4330  -10.9057 cj      1  lig       0.147885
     11 O_0a         22.4875   -0.2786  -11.6860 o1      1  lig      -0.224940
     12 C_0b         21.2486   -0.5699  -11.1809 ck      1  lig       0.075897
     13 C_0c         20.6770   -1.8256  -11.3995 cm      1  lig      -0.108248
     14 C_0d         19.4179   -2.1080  -10.8727 cn      1  lig       0.185783
     15 C_0e         18.7289   -1.1532  -10.1417 co      1  lig      -0.136196
     16 C_0f         19.3023    0.1333   -9.9545 cq      1  lig      -0.108076
     17 C_0g         18.5710    1.1634   -9.2382 cr      1  lig       0.371637
     18 C_0h         20.5526    0.3882  -10.4464 cs      1  lig      -0.088005
     19 S_0i         27.5350   -1.0542   -8.5888 s0      1  lig       0.807106
     20 O_0j         27.2245   -2.0103   -7.5175 o2      1  lig      -0.502754
     21 O_0k         28.5876   -1.3949   -9.5469 o3      1  lig      -0.496463
     22 C_0l         27.9675    0.6084   -7.8120 ct      1  lig       0.112169
     23 F_0m         27.8916    1.5374   -8.7619 f0      1  lig      -0.131555
     24 F_0n         27.1087    0.8486   -6.8235 f1      1  lig      -0.144390
     25 N_0o         18.0096    1.9978   -8.6641 n0      1  lig      -0.437729
     26 F_0p         18.8612   -3.3248  -11.0680 f2      1  lig      -0.169283
     27 H_0q         28.3285    1.8440  -11.7146 h0      1  lig       0.376232
     28 H_0r         27.9831   -0.3652  -11.7079 h6      1  lig       0.080396
     29 H_0s         26.9486    1.2013  -13.6586 h7      1  lig       0.015750
     30 H_0t         26.7016   -0.5357  -13.6445 h8      1  lig       0.015750
     31 H_0u         24.4372    0.1594  -13.6425 h9      1  lig       0.060762
     32 H_0v         24.7828    1.6653  -12.7799 hb      1  lig       0.060762
     33 H_0w         24.7866   -1.4665   -7.8955 hd      1  lig       0.198026
     34 H_0x         22.6845   -1.2110   -9.1051 he      1  lig       0.166824
     35 H_0y         21.2122   -2.5863  -11.9511 hf      1  lig       0.164220
     36 H_0z         17.7861   -1.4111   -9.7045 hg      1  lig       0.183212
     37 H_10         21.0278    1.3625  -10.2649 hh      1  lig       0.169850
     38 H_11         28.9817    0.5496   -7.4392 hi      1  lig       0.204990
@<TRIPOS>BOND
     1     1     2    1
     2     1    27    1
     3     2     3    1
     4     2     6    1
     5     2    28    1
     6     3     4    1
     7     3    29    1
     8     3    30    1
     9     4     5    1
    10     4    31    1
    11     4    32    1
    12     5     6    2
    13     5    10    1
    14     6     7    1
    15     7     8    2
    16     7    19    1
    17     8     9    1
    18     8    33    1
    19     9    10    2
    20     9    34    1
    21    10    11    1
    22    11    12    1
    23    12    13    2
    24    12    18    1
    25    13    14    1
    26    13    35    1
    27    14    15    2
    28    14    26    1
    29    15    16    1
    30    15    36    1
    31    16    17    1
    32    16    18    2
    33    17    25    3
    34    18    37    1
    35    19    20    2
    36    19    21    2
    37    19    22    1
    38    22    23    1
    39    22    24    1
    40    22    38    1
