@<TRIPOS>MOLECULE
lig
  38   40 0 0 0
SMALL
NO_CHARGES


@<TRIPOS>ATOM
      1 O_00         27.5805    1.5534  -11.2532 o0      1  lig      -0.603177
      2 C_01         27.1501    0.2775  -11.6687 c4      1  lig       0.176771
      3 C_02         26.5293    0.4064  -13.0572 c5      1  lig       0.042087
      4 C_03         25.0376    0.6062  -12.8261 c6      1  lig      -0.087595
      5 C_04         24.8055   -0.0621  -11.4896 c7      1  lig       0.036453
      6 C_05         26.0115   -0.2357  -10.8045 c8      1  lig      -0.047510
      7 C_06         26.0133   -0.7776   -9.5085 c9      1  lig      -0.008179
      8 C_07         24.7953   -1.0889   -8.8985 cb      1  lig      -0.208691
      9 C_08         23.5968   -0.9351   -9.5925 ci      1  lig      -0.178543
     10 C_09         23.5998   -0.4290  -10.8992 cj      1  lig       0.177667
     11 O_0a         22.4856   -0.2941  -11.6969 o1      1  lig      -0.268248
     12 C_0b         21.2434   -0.5785  -11.2009 ck      1  lig       0.145879
     13 C_0c         20.6719   -1.8357  -11.4023 cm      1  lig      -0.068668
     14 C_0d         19.4175   -2.1171  -10.8625 cn      1  lig      -0.230206
     15 C_0e         18.7315   -1.1381  -10.1404 co      1  lig      -0.097634
     16 C_0f         19.2888    0.1333   -9.9695 cq      1  lig      -0.036913
     17 C_0g         18.5741    1.1692   -9.2318 cr      1  lig       0.334475
     18 C_0h         20.5530    0.4006  -10.4887 cs      1  lig      -0.123295
     19 S_0i         27.5308   -1.0719   -8.5932 s0      1  lig       0.810633
     20 O_0j         27.2326   -2.0223   -7.5182 o2      1  lig      -0.505722
     21 O_0k         28.5832   -1.4111   -9.5503 o3      1  lig      -0.498027
     22 C_0l         27.9414    0.6033   -7.8192 ct      1  lig       0.111001
     23 F_0m         27.8101    1.5688   -8.7107 f0      1  lig      -0.131000
     24 F_0n         27.0858    0.8173   -6.8182 f1      1  lig      -0.144190
     25 N_0o         18.0126    1.9813   -8.6297 n0      1  lig      -0.440670
     26 H_0p         28.3766    1.8137  -11.7472 h0      1  lig       0.374468
     27 H_0q         27.9769   -0.4329  -11.6977 h6      1  lig       0.076935
     28 H_0r         26.9654    1.2263  -13.6309 h7      1  lig       0.015404
     29 H_0s         26.6920   -0.5061  -13.6310 h8      1  lig       0.015404
     30 H_0t         24.4251    0.1733  -13.6149 h9      1  lig       0.060658
     31 H_0u         24.8057    1.6727  -12.7825 hb      1  lig       0.060658
     32 H_0v         24.7760   -1.4711   -7.8880 hd      1  lig       0.200161
     33 H_0w         22.6732   -1.2370   -9.1205 he      1  lig       0.166604
     34 H_0x         21.2057   -2.5939  -11.9585 hf      1  lig       0.148848
     35 H_0y         18.9791   -3.0947  -11.0040 hg      1  lig       0.179741
     36 H_0z         17.7706   -1.3798   -9.7130 hh      1  lig       0.166331
     37 H_10         21.0174    1.3656  -10.3389 hi      1  lig       0.174504
     38 H_11         28.9665    0.5981   -7.4687 hj      1  lig       0.203586
@<TRIPOS>BOND
     1     1     2    1
     2     1    26    1
     3     2     3    1
     4     2     6    1
     5     2    27    1
     6     3     4    1
     7     3    28    1
     8     3    29    1
     9     4     5    1
    10     4    30    1
    11     4    31    1
    12     5     6    2
    13     5    10    1
    14     6     7    1
    15     7     8    2
    16     7    19    1
    17     8     9    1
    18     8    32    1
    19     9    10    2
    20     9    33    1
    21    10    11    1
    22    11    12    1
    23    12    13    2
    24    12    18    1
    25    13    14    1
    26    13    34    1
    27    14    15    2
    28    14    35    1
    29    15    16    1
    30    15    36    1
    31    16    17    1
    32    16    18    2
    33    17    25    3
    34    18    37    1
    35    19    20    2
    36    19    21    2
    37    19    22    1
    38    22    23    1
    39    22    24    1
    40    22    38    1
