@<TRIPOS>MOLECULE
lig
  39   41 0 0 0
SMALL
NO_CHARGES


@<TRIPOS>ATOM
      1 N_00         27.6126   -0.7221  -11.8575 n0      1  lig      -0.880580
      2 C_01         26.8627    0.4834  -11.6485 c4      1  lig       0.115123
      3 C_02         26.1047    0.9544  -12.9037 c5      1  lig       0.367699
      4 C_03         24.7399    0.3045  -12.8887 c6      1  lig      -0.215103
      5 C_04         24.5521    0.0154  -11.4229 c7      1  lig       0.012146
      6 C_05         25.7582    0.0913  -10.7061 c8      1  lig      -0.093458
      7 C_06         25.8158   -0.3193   -9.3720 c9      1  lig       0.015258
      8 C_07         24.6669   -0.8401   -8.7767 cb      1  lig      -0.199456
      9 C_08         23.4728   -0.8983   -9.5001 ci      1  lig      -0.199525
     10 C_09         23.4127   -0.4346  -10.8069 cj      1  lig       0.264945
     11 O_0a         22.3203   -0.4472  -11.6365 o0      1  lig      -0.269694
     12 C_0b         21.0931   -0.6646  -11.1188 ck      1  lig       0.072024
     13 C_0c         20.5226   -1.9214  -11.2703 cm      1  lig      -0.110595
     14 C_0d         19.2978   -2.1862  -10.6822 cn      1  lig       0.199205
     15 F_0e         18.7173   -3.3953  -10.8100 f0      1  lig      -0.171033
     16 C_0f         18.6466   -1.1917   -9.9592 co      1  lig      -0.153158
     17 C_0g         19.1729    0.0954   -9.8802 cq      1  lig      -0.123579
     18 C_0h         18.4511    1.1750   -9.2307 cr      1  lig       0.388998
     19 C_0i         20.4149    0.3549  -10.4427 cs      1  lig      -0.041182
     20 S_0j         27.3832   -0.4357   -8.4930 s0      1  lig       0.979906
     21 O_0k         27.1650   -1.2520   -7.3169 o1      1  lig      -0.552318
     22 O_0l         28.4060   -0.7807   -9.4815 o2      1  lig      -0.564893
     23 C_0m         27.7560    1.2677   -7.8424 ct      1  lig      -0.360936
     24 F_0n         25.9199    2.2501  -12.6967 f1      1  lig      -0.242927
     25 F_0o         26.7393    0.7426  -14.0688 f2      1  lig      -0.190960
     26 N_0p         17.8847    2.0403   -8.7170 ng      1  lig      -0.445263
     27 H_0q         28.4254   -0.5246  -12.4360 h0      1  lig       0.375061
     28 H_0r         27.9605   -1.1018  -10.9738 h6      1  lig       0.375061
     29 H_0s         27.4864    1.2911  -11.3381 h7      1  lig       0.107300
     30 H_0t         24.7677   -0.6258  -13.4628 h8      1  lig       0.137788
     31 H_0u         23.9668    0.9440  -13.3228 h9      1  lig       0.137788
     32 H_0v         24.7064   -1.2424   -7.7690 hb      1  lig       0.198450
     33 H_0w         22.6069   -1.3623   -9.0644 hd      1  lig       0.165746
     34 H_0x         21.0440   -2.6868  -11.8270 he      1  lig       0.165487
     35 H_0y         17.7233   -1.4644   -9.4868 hf      1  lig       0.187444
     36 H_0z         20.8568    1.3336  -10.3269 hg      1  lig       0.128022
     37 H_10         28.7359    1.1864   -7.3802 hh      1  lig       0.140403
     38 H_11         27.0414    1.4910   -7.0641 hi      1  lig       0.140403
     39 H_12         27.7898    1.9666   -8.6384 hj      1  lig       0.140403
@<TRIPOS>BOND
     1     1     2    1
     2     1    27    1
     3     1    28    1
     4     2     3    1
     5     2     6    1
     6     2    29    1
     7     3     4    1
     8     3    24    1
     9     3    25    1
    10     4     5    1
    11     4    30    1
    12     4    31    1
    13     5     6    2
    14     5    10    1
    15     6     7    1
    16     7     8    2
    17     7    20    1
    18     8     9    1
    19     8    32    1
    20     9    10    2
    21     9    33    1
    22    10    11    1
    23    11    12    1
    24    12    13    2
    25    12    19    1
    26    13    14    1
    27    13    34    1
    28    14    15    1
    29    14    16    2
    30    16    17    1
    31    16    35    1
    32    17    18    1
    33    17    19    2
    34    18    26    3
    35    19    36    1
    36    20    21    2
    37    20    22    2
    38    20    23    1
    39    23    37    1
    40    23    38    1
    41    23    39    1
