@<TRIPOS>MOLECULE
lig
  39   41 0 0 0
SMALL
NO_CHARGES


@<TRIPOS>ATOM
      1 N_00         27.5836    1.5568  -11.1222 n0      1  lig      -0.692439
      2 C_01         27.1600    0.2656  -11.6609 c4      1  lig       0.116276
      3 C_02         26.5184    0.3567  -13.0592 c5      1  lig       0.371518
      4 C_03         25.0297    0.5910  -12.8413 c6      1  lig      -0.043477
      5 C_04         24.8052   -0.0654  -11.5002 c7      1  lig      -0.017311
      6 C_05         26.0146   -0.2437  -10.8064 c8      1  lig      -0.047118
      7 C_06         26.0168   -0.7770   -9.5128 c9      1  lig      -0.048937
      8 C_07         24.7994   -1.0910   -8.8981 cb      1  lig      -0.135501
      9 C_08         23.6068   -0.9245   -9.5924 ci      1  lig      -0.213143
     10 C_09         23.5979   -0.4259  -10.8920 cj      1  lig       0.196577
     11 O_0a         22.4815   -0.2804  -11.6866 o0      1  lig      -0.261335
     12 C_0b         21.2483   -0.5736  -11.1926 ck      1  lig       0.107447
     13 C_0c         20.6741   -1.8286  -11.3993 cm      1  lig      -0.130004
     14 C_0d         19.4240   -2.1099  -10.8753 cn      1  lig       0.201723
     15 F_0e         18.8513   -3.3170  -11.0668 f0      1  lig      -0.170590
     16 C_0f         18.7373   -1.1448  -10.1406 co      1  lig      -0.149233
     17 C_0g         19.2884    0.1262   -9.9662 cq      1  lig      -0.120081
     18 C_0h         18.5751    1.1667   -9.2345 cr      1  lig       0.386923
     19 C_0i         20.5446    0.3954  -10.4628 cs      1  lig      -0.065892
     20 S_0j         27.5234   -1.0682   -8.5880 s0      1  lig       0.910890
     21 O_0k         27.2169   -1.9994   -7.4943 o1      1  lig      -0.559944
     22 O_0l         28.5933   -1.3900   -9.5234 o2      1  lig      -0.544355
     23 C_0m         27.9099    0.6030   -7.8462 ct      1  lig      -0.188671
     24 F_0n         27.0617    1.2852  -13.8476 f1      1  lig      -0.230089
     25 F_0o         26.6509   -0.8260  -13.6655 f2      1  lig      -0.240914
     26 N_0p         18.0232    1.9902   -8.6670 ng      1  lig      -0.444941
     27 H_0q         28.1780    1.3732  -10.3208 h0      1  lig       0.313437
     28 H_0r         28.2339    1.9505  -11.7936 h6      1  lig       0.313437
     29 H_0s         27.9972   -0.4377  -11.7205 h7      1  lig       0.113317
     30 H_0t         24.4163    0.1879  -13.6481 h8      1  lig       0.073691
     31 H_0u         24.8098    1.6549  -12.7768 h9      1  lig       0.073691
     32 H_0v         24.7791   -1.4892   -7.9000 hb      1  lig       0.188528
     33 H_0w         22.6845   -1.2350   -9.1033 hd      1  lig       0.169093
     34 H_0x         21.2126   -2.5935  -11.9444 he      1  lig       0.168292
     35 H_0y         17.8017   -1.4265   -9.7043 hf      1  lig       0.185400
     36 H_0z         21.0067    1.3483  -10.2588 hg      1  lig       0.143897
     37 H_10         28.8501    0.4838   -7.3200 hh      1  lig       0.089946
     38 H_11         27.1027    0.8984   -7.1794 hi      1  lig       0.089946
     39 H_12         28.0467    1.3492   -8.6202 hj      1  lig       0.089946
@<TRIPOS>BOND
     1     1     2    1
     2     1    27    1
     3     1    28    1
     4     2     3    1
     5     2     6    1
     6     2    29    1
     7     3     4    1
     8     3    24    1
     9     3    25    1
    10     4     5    1
    11     4    30    1
    12     4    31    1
    13     5     6    2
    14     5    10    1
    15     6     7    1
    16     7     8    2
    17     7    20    1
    18     8     9    1
    19     8    32    1
    20     9    10    2
    21     9    33    1
    22    10    11    1
    23    11    12    1
    24    12    13    2
    25    12    19    1
    26    13    14    1
    27    13    34    1
    28    14    15    1
    29    14    16    2
    30    16    17    1
    31    16    35    1
    32    17    18    1
    33    17    19    2
    34    18    26    3
    35    19    36    1
    36    20    21    2
    37    20    22    2
    38    20    23    1
    39    23    37    1
    40    23    38    1
    41    23    39    1
