@<TRIPOS>MOLECULE
lig
  38   40 0 0 0
SMALL
NO_CHARGES


@<TRIPOS>ATOM
      1 O_00         27.6174    1.5478  -11.1379 o0      1  lig      -0.568008
      2 C_01         27.1576    0.3016  -11.6549 c4      1  lig       0.038608
      3 C_02         26.5229    0.3791  -13.0512 c5      1  lig       0.393156
      4 C_03         25.0317    0.5852  -12.8454 c6      1  lig      -0.089143
      5 C_04         24.8099   -0.0815  -11.5012 c7      1  lig       0.023605
      6 C_05         26.0230   -0.2460  -10.8113 c8      1  lig      -0.041750
      7 C_06         26.0229   -0.7786   -9.5060 c9      1  lig       0.010196
      8 C_07         24.8037   -1.0879   -8.9007 cb      1  lig      -0.175432
      9 C_08         23.6089   -0.9192   -9.5831 ci      1  lig      -0.192672
     10 C_09         23.6054   -0.4269  -10.8974 cj      1  lig       0.188429
     11 O_0a         22.4927   -0.2591  -11.6812 o1      1  lig      -0.266888
     12 C_0b         21.2585   -0.5430  -11.1867 ck      1  lig       0.129964
     13 C_0c         20.6891   -1.7973  -11.3987 cm      1  lig      -0.009861
     14 C_0d         19.4288   -2.0656  -10.8661 cn      1  lig      -0.094879
     15 C_0e         18.7466   -1.1093  -10.1294 co      1  lig      -0.036183
     16 C_0f         19.3039    0.1671   -9.9553 cq      1  lig      -0.061409
     17 C_0g         18.5747    1.1946   -9.2462 cr      1  lig       0.339730
     18 C_0h         20.5607    0.4183  -10.4590 cs      1  lig      -0.123670
     19 S_0i         27.5352   -1.0636   -8.5830 s0      1  lig       0.865266
     20 O_0j         27.2233   -2.0141   -7.4936 o2      1  lig      -0.521263
     21 O_0k         28.5909   -1.3989   -9.5185 o3      1  lig      -0.542565
     22 C_0l         27.9412    0.6140   -7.8295 ct      1  lig       0.018872
     23 F_0m         27.1179    0.8438   -6.8093 f0      1  lig      -0.205331
     24 N_0n         18.0155    2.0188   -8.6719 n0      1  lig      -0.427510
     25 Cl0o         18.6828   -3.5869  -11.1124 a0      1  lig      -0.064860
     26 F_0p         27.0640    1.3150  -13.8239 f1      1  lig      -0.223192
     27 F_0q         26.6730   -0.7998  -13.6562 f2      1  lig      -0.227800
     28 H_0r         28.3618    1.8681  -11.6713 h0      1  lig       0.416813
     29 H_0s         27.9828   -0.4090  -11.7192 h6      1  lig       0.148890
     30 H_0t         24.4208    0.1923  -13.6623 h7      1  lig       0.088230
     31 H_0u         24.7995    1.6472  -12.7681 h8      1  lig       0.088230
     32 H_0v         24.7791   -1.4880   -7.8979 h9      1  lig       0.199574
     33 H_0w         22.6949   -1.2250   -9.0991 hb      1  lig       0.172263
     34 H_0x         21.2136   -2.5719  -11.9366 hd      1  lig       0.144811
     35 H_0y         17.8151   -1.3988   -9.6937 he      1  lig       0.164011
     36 H_0z         21.0174    1.3729  -10.2677 hf      1  lig       0.178048
     37 H_10         28.9709    0.5746   -7.4730 hg      1  lig       0.131860
     38 H_11         27.8363    1.3925   -8.5883 hh      1  lig       0.131860
@<TRIPOS>BOND
     1     1     2    1
     2     1    28    1
     3     2     3    1
     4     2     6    1
     5     2    29    1
     6     3     4    1
     7     3    26    1
     8     3    27    1
     9     4     5    1
    10     4    30    1
    11     4    31    1
    12     5     6    2
    13     5    10    1
    14     6     7    1
    15     7     8    2
    16     7    19    1
    17     8     9    1
    18     8    32    1
    19     9    10    2
    20     9    33    1
    21    10    11    1
    22    11    12    1
    23    12    13    2
    24    12    18    1
    25    13    14    1
    26    13    34    1
    27    14    15    2
    28    14    25    1
    29    15    16    1
    30    15    35    1
    31    16    17    1
    32    16    18    2
    33    17    24    3
    34    18    36    1
    35    19    20    2
    36    19    21    2
    37    19    22    1
    38    22    23    1
    39    22    37    1
    40    22    38    1
