@<TRIPOS>MOLECULE
lig
  41   43 0 0 0
SMALL
NO_CHARGES


@<TRIPOS>ATOM
      1 O_00         27.8905    0.7814  -11.2833 o0      1  lig      -0.590670
      2 C_01         26.9193   -0.0282  -11.8984 c4      1  lig       0.095561
      3 C_02         26.2553    0.6485  -13.1070 c5      1  lig       0.349327
      4 C_03         24.7743    0.3619  -13.0634 c6      1  lig      -0.061569
      5 C_04         24.5513   -0.0833  -11.6435 c7      1  lig       0.009826
      6 C_05         25.7571   -0.3137  -10.9611 c8      1  lig      -0.028985
      7 C_06         25.7304   -0.7838   -9.6350 c9      1  lig      -0.003328
      8 C_07         24.4955   -0.9388   -8.9991 cb      1  lig      -0.173919
      9 C_08         23.3088   -0.7555   -9.6942 ci      1  lig      -0.203599
     10 C_09         23.3376   -0.3678  -11.0366 cj      1  lig       0.191197
     11 O_0a         22.2312   -0.2289  -11.8473 o1      1  lig      -0.250019
     12 C_0b         21.0019   -0.5424  -11.3497 ck      1  lig       0.099221
     13 C_0c         20.5026   -1.8363  -11.4599 cm      1  lig      -0.119556
     14 C_0d         19.3111   -2.1637  -10.8207 cn      1  lig       0.184931
     15 F_0e         18.8034   -3.4051  -10.9256 f0      1  lig      -0.166779
     16 C_0f         18.6360   -1.2092  -10.0655 co      1  lig      -0.130380
     17 C_0g         19.1032    0.1048  -10.0073 cq      1  lig      -0.128991
     18 C_0h         18.4198    1.1400   -9.2611 cr      1  lig       0.380971
     19 C_0i         20.2891    0.4299  -10.6551 cs      1  lig      -0.077859
     20 S_0j         27.1782   -1.3347   -8.7177 s0      1  lig       0.847832
     21 O_0k         26.7390   -2.4320   -7.8613 o2      1  lig      -0.561685
     22 O_0l         28.2843   -1.5524   -9.6512 o3      1  lig      -0.522965
     23 C_0m         27.6153    0.0506   -7.5323 ct      1  lig      -0.005954
     24 F_0n         26.3933    1.9664  -13.0190 f1      1  lig      -0.218223
     25 F_0o         26.7651    0.2478  -14.2653 f2      1  lig      -0.225905
     26 N_0p         17.8859    1.9702   -8.6637 n0      1  lig      -0.440709
     27 C_0q         28.2838    1.1998   -8.2640 cw      1  lig      -0.080848
     28 H_0r         28.4344    1.2213  -11.9476 h0      1  lig       0.418630
     29 H_0s         27.3623   -0.9733  -12.2077 h6      1  lig       0.140406
     30 H_0t         24.5370   -0.4389  -13.7581 h7      1  lig       0.081539
     31 H_0u         24.1815    1.2313  -13.3494 h8      1  lig       0.081539
     32 H_0v         24.4471   -1.2650   -7.9726 h9      1  lig       0.192626
     33 H_0w         22.3722   -0.9488   -9.1964 hb      1  lig       0.174422
     34 H_0x         21.0600   -2.5906  -11.9949 hd      1  lig       0.167337
     35 H_0y         17.7638   -1.5211   -9.5283 he      1  lig       0.183334
     36 H_0z         20.6808    1.4261  -10.5650 hf      1  lig       0.159176
     37 H_10         26.6995    0.3531   -7.0244 hg      1  lig       0.057538
     38 H_11         28.2860   -0.3848   -6.7955 hh      1  lig       0.057538
     39 H_12         28.6278    1.9639   -7.5645 hi      1  lig       0.039664
     40 H_13         27.5819    1.6805   -8.9401 hj      1  lig       0.039664
     41 H_14         29.1450    0.8679   -8.8468 hk      1  lig       0.039664
@<TRIPOS>BOND
     1     1     2    1
     2     1    28    1
     3     2     3    1
     4     2     6    1
     5     2    29    1
     6     3     4    1
     7     3    24    1
     8     3    25    1
     9     4     5    1
    10     4    30    1
    11     4    31    1
    12     5     6    2
    13     5    10    1
    14     6     7    1
    15     7     8    2
    16     7    20    1
    17     8     9    1
    18     8    32    1
    19     9    10    2
    20     9    33    1
    21    10    11    1
    22    11    12    1
    23    12    13    2
    24    12    19    1
    25    13    14    1
    26    13    34    1
    27    14    15    1
    28    14    16    2
    29    16    17    1
    30    16    35    1
    31    17    18    1
    32    17    19    2
    33    18    26    3
    34    19    36    1
    35    20    21    2
    36    20    22    2
    37    20    23    1
    38    23    27    1
    39    23    37    1
    40    23    38    1
    41    27    39    1
    42    27    40    1
    43    27    41    1
