@<TRIPOS>MOLECULE
lig
  38   40 0 0 0
SMALL
NO_CHARGES


@<TRIPOS>ATOM
      1 O_00         27.6091    1.5498  -11.1508 o0      1  lig      -0.569554
      2 C_01         27.1523    0.3007  -11.6520 c4      1  lig       0.045621
      3 C_02         26.5179    0.3762  -13.0497 c5      1  lig       0.389209
      4 C_03         25.0307    0.5974  -12.8369 c6      1  lig      -0.079531
      5 C_04         24.8058   -0.0760  -11.4979 c7      1  lig       0.025872
      6 C_05         26.0140   -0.2422  -10.8075 c8      1  lig      -0.041202
      7 C_06         26.0179   -0.7821   -9.5113 c9      1  lig      -0.021352
      8 C_07         24.8010   -1.0892   -8.9002 cb      1  lig      -0.165542
      9 C_08         23.6017   -0.9289   -9.5882 ci      1  lig      -0.179930
     10 C_09         23.6015   -0.4265  -10.8963 cj      1  lig       0.172696
     11 O_0a         22.4844   -0.2813  -11.6858 o1      1  lig      -0.236425
     12 C_0b         21.2443   -0.5742  -11.1910 ck      1  lig       0.081184
     13 C_0c         20.6757   -1.8294  -11.4027 cm      1  lig      -0.107696
     14 C_0d         19.4222   -2.1115  -10.8707 cn      1  lig       0.182307
     15 F_0e         18.8538   -3.3158  -11.0650 f0      1  lig      -0.166609
     16 C_0f         18.7401   -1.1454  -10.1430 co      1  lig      -0.131133
     17 C_0g         19.2855    0.1245   -9.9643 cq      1  lig      -0.116251
     18 C_0h         18.5738    1.1651   -9.2478 cr      1  lig       0.374163
     19 C_0i         20.5517    0.3924  -10.4677 cs      1  lig      -0.080373
     20 S_0j         27.5336   -1.0789   -8.5968 s0      1  lig       0.939992
     21 O_0k         27.2337   -2.0296   -7.5210 o2      1  lig      -0.524430
     22 O_0l         28.5907   -1.4009   -9.5499 o3      1  lig      -0.543617
     23 C_0m         27.9246    0.5996   -7.8590 ct      1  lig      -0.291774
     24 F_0n         27.0644    1.3127  -13.8260 f1      1  lig      -0.224569
     25 F_0o         26.6596   -0.8019  -13.6597 f2      1  lig      -0.227917
     26 N_0p         18.0143    1.9955   -8.6715 n0      1  lig      -0.433415
     27 Cl0q         27.0855    0.7673   -6.3061 a0      1  lig      -0.100966
     28 H_0r         28.3441    1.8680  -11.7060 h0      1  lig       0.419158
     29 H_0s         27.9773   -0.4094  -11.7093 h6      1  lig       0.150283
     30 H_0t         24.4193    0.1887  -13.6438 h7      1  lig       0.085787
     31 H_0u         24.8032    1.6619  -12.7725 h8      1  lig       0.085787
     32 H_0v         24.7795   -1.4796   -7.8938 h9      1  lig       0.195975
     33 H_0w         22.6896   -1.2331   -9.1081 hb      1  lig       0.171488
     34 H_0x         21.2108   -2.5926  -11.9445 hd      1  lig       0.164869
     35 H_0y         17.8042   -1.4221   -9.7064 he      1  lig       0.183279
     36 H_0z         21.0078    1.3477  -10.2751 hf      1  lig       0.165288
     37 H_10         28.9969    0.6434   -7.6857 hg      1  lig       0.204664
     38 H_11         27.6251    1.3933   -8.5421 hh      1  lig       0.204664
@<TRIPOS>BOND
     1     1     2    1
     2     1    28    1
     3     2     3    1
     4     2     6    1
     5     2    29    1
     6     3     4    1
     7     3    24    1
     8     3    25    1
     9     4     5    1
    10     4    30    1
    11     4    31    1
    12     5     6    2
    13     5    10    1
    14     6     7    1
    15     7     8    2
    16     7    20    1
    17     8     9    1
    18     8    32    1
    19     9    10    2
    20     9    33    1
    21    10    11    1
    22    11    12    1
    23    12    13    2
    24    12    19    1
    25    13    14    1
    26    13    34    1
    27    14    15    1
    28    14    16    2
    29    16    17    1
    30    16    35    1
    31    17    18    1
    32    17    19    2
    33    18    26    3
    34    19    36    1
    35    20    21    2
    36    20    22    2
    37    20    23    1
    38    23    27    1
    39    23    37    1
    40    23    38    1
