@<TRIPOS>MOLECULE
lig
  37   39 0 0 0
SMALL
NO_CHARGES


@<TRIPOS>ATOM
      1 O_00         27.5892    1.5543  -11.2505 o0      1  lig      -0.603475
      2 C_01         27.1498    0.2833  -11.6710 c4      1  lig       0.051367
      3 C_02         26.5108    0.3676  -13.0595 c5      1  lig       0.453986
      4 C_03         25.0274    0.6124  -12.8307 c6      1  lig      -0.114413
      5 C_04         24.7998   -0.0567  -11.4929 c7      1  lig      -0.012126
      6 C_05         26.0087   -0.2305  -10.8088 c8      1  lig      -0.019751
      7 C_06         26.0111   -0.7788   -9.5159 c9      1  lig      -0.004537
      8 C_07         24.7936   -1.0867   -8.9039 cb      1  lig      -0.153643
      9 C_08         23.5969   -0.9365   -9.5976 ci      1  lig      -0.273416
     10 C_09         23.5942   -0.4360  -10.9066 cj      1  lig       0.298466
     11 O_0a         22.4686   -0.2925  -11.6835 o1      1  lig      -0.270473
     12 C_0b         21.3282   -0.9881  -11.3963 ck      1  lig       0.059110
     13 S_0c         27.5230   -1.0757   -8.5998 s0      1  lig       0.786753
     14 O_0d         27.2255   -2.0253   -7.5211 o2      1  lig      -0.489040
     15 O_0e         28.5744   -1.4184   -9.5570 o3      1  lig      -0.475592
     16 C_0f         27.9214    0.6061   -7.8350 cm      1  lig       0.361941
     17 F_0g         26.6364   -0.8101  -13.6721 f0      1  lig      -0.249420
     18 F_0h         27.0633    1.3020  -13.8343 f1      1  lig      -0.236921
     19 F_0i         29.1867    0.5592   -7.4973 f2      1  lig      -0.107388
     20 F_0j         27.7524    1.5709   -8.7021 f3      1  lig      -0.105538
     21 F_0k         27.1266    0.7997   -6.7875 f4      1  lig      -0.137139
     22 C_0l         21.0786   -2.3612  -11.5124 cn      1  lig       0.042569
     23 N_0m         19.8428   -2.6747  -11.1890 n0      1  lig      -0.452114
     24 N_0n         19.2863   -1.5151  -10.8350 ng      1  lig       0.196464
     25 C_0o         20.1395   -0.4523  -10.9690 co      1  lig      -0.176269
     26 C_0p         17.9093   -1.4982  -10.3984 cq      1  lig      -0.145744
     27 H_0q         28.3645    1.8361  -11.7694 h0      1  lig       0.427606
     28 H_0r         27.9763   -0.4257  -11.6958 h6      1  lig       0.141913
     29 H_0s         24.8087    1.6838  -12.7839 h7      1  lig       0.086839
     30 H_0t         24.4133    0.1809  -13.6152 h8      1  lig       0.086839
     31 H_0u         24.7772   -1.4629   -7.8914 h9      1  lig       0.193739
     32 H_0v         22.6752   -1.2335   -9.1264 hb      1  lig       0.187051
     33 H_0w         21.7723   -3.1162  -11.8587 hd      1  lig       0.163120
     34 H_0x         19.8418    0.5586  -10.7467 he      1  lig       0.201095
     35 H_0y         17.2620   -1.8736  -11.1914 hf      1  lig       0.096047
     36 H_0z         17.6284   -0.4741  -10.1584 hg      1  lig       0.096047
     37 H_10         17.7963   -2.1168   -9.5078 hh      1  lig       0.096047
@<TRIPOS>BOND
     1     1     2    1
     2     1    27    1
     3     2     3    1
     4     2     6    1
     5     2    28    1
     6     3     4    1
     7     3    17    1
     8     3    18    1
     9     4     5    1
    10     4    29    1
    11     4    30    1
    12     5     6    2
    13     5    10    1
    14     6     7    1
    15     7     8    2
    16     7    13    1
    17     8     9    1
    18     8    31    1
    19     9    10    2
    20     9    32    1
    21    10    11    1
    22    11    12    1
    23    12    22    1
    24    12    25    2
    25    13    14    2
    26    13    15    2
    27    13    16    1
    28    16    19    1
    29    16    20    1
    30    16    21    1
    31    22    23    2
    32    22    33    1
    33    23    24    1
    34    24    25    1
    35    24    26    1
    36    25    34    1
    37    26    35    1
    38    26    36    1
    39    26    37    1
