@<TRIPOS>MOLECULE
lig
  38   40 0 0 0
SMALL
NO_CHARGES


@<TRIPOS>ATOM
      1 O_00         27.8272    1.5641  -11.0613 o0      1  lig      -0.601032
      2 C_01         27.1196    0.5197  -11.7089 c4      1  lig       0.186412
      3 C_02         26.4410    0.9322  -13.0322 c5      1  lig       0.119769
      4 C_03         25.0569    0.3132  -13.0465 c6      1  lig      -0.126744
      5 C_04         24.8031   -0.0378  -11.5948 c7      1  lig       0.041496
      6 C_05         25.9821   -0.0054  -10.8391 c8      1  lig      -0.049852
      7 C_06         25.9756   -0.4108   -9.4860 c9      1  lig      -0.047590
      8 C_07         24.7523   -0.7639   -8.9047 cb      1  lig      -0.186625
      9 C_08         23.5893   -0.8199   -9.6602 ci      1  lig      -0.192671
     10 C_09         23.6070   -0.4713  -11.0162 cj      1  lig       0.199916
     11 O_0a         22.5129   -0.5291  -11.8499 o1      1  lig      -0.251336
     12 C_0b         21.2693   -0.7597  -11.3270 ck      1  lig       0.101920
     13 C_0c         20.6685   -2.0051  -11.4862 cm      1  lig      -0.127585
     14 C_0d         19.4249   -2.2461  -10.9160 cn      1  lig       0.193131
     15 F_0e         18.8269   -3.4424  -11.0720 f0      1  lig      -0.168435
     16 C_0f         18.7871   -1.2517  -10.1791 co      1  lig      -0.135284
     17 C_0g         19.3542    0.0199  -10.0730 cq      1  lig      -0.125781
     18 C_0h         18.6860    1.1030   -9.3771 cr      1  lig       0.378981
     19 C_0i         20.6055    0.2435  -10.6245 cs      1  lig      -0.064614
     20 S_0j         27.4540   -0.4504   -8.4410 s0      1  lig       0.878630
     21 O_0k         27.2130   -1.3677   -7.3228 o2      1  lig      -0.505277
     22 O_0l         28.5784   -0.6917   -9.3508 o3      1  lig      -0.514569
     23 C_0m         27.6740    1.2644   -7.6619 ct      1  lig       0.403509
     24 F_0n         26.2395    2.2465  -13.0641 f1      1  lig      -0.216702
     25 N_0o         18.1663    1.9675   -8.8128 n0      1  lig      -0.437314
     26 F_0p         27.2225    1.2103   -6.4199 f2      1  lig      -0.138652
     27 F_0q         28.9768    1.5534   -7.6702 f3      1  lig      -0.114045
     28 F_0r         27.0318    2.1940   -8.3234 f4      1  lig      -0.121871
     29 H_0s         28.5149    1.9300  -11.6463 h0      1  lig       0.402612
     30 H_0t         27.8025   -0.3009  -11.9316 h6      1  lig       0.078020
     31 H_0u         27.0306    0.7186  -13.9241 h7      1  lig       0.099555
     32 H_0v         25.0758   -0.5870  -13.6585 h8      1  lig       0.078381
     33 H_0w         24.3018    0.9764  -13.4758 h9      1  lig       0.078381
     34 H_0x         24.6649   -1.0110   -7.8636 hb      1  lig       0.205722
     35 H_0y         22.6896   -1.1518   -9.1671 hd      1  lig       0.166288
     36 H_0z         21.1858   -2.7906  -12.0103 he      1  lig       0.168895
     37 H_10         17.8819   -1.5039   -9.6760 hf      1  lig       0.185191
     38 H_11         21.0827    1.1859  -10.4602 hg      1  lig       0.159170
@<TRIPOS>BOND
     1     1     2    1
     2     1    29    1
     3     2     3    1
     4     2     6    1
     5     2    30    1
     6     3     4    1
     7     3    24    1
     8     3    31    1
     9     4     5    1
    10     4    32    1
    11     4    33    1
    12     5     6    2
    13     5    10    1
    14     6     7    1
    15     7     8    2
    16     7    20    1
    17     8     9    1
    18     8    34    1
    19     9    10    2
    20     9    35    1
    21    10    11    1
    22    11    12    1
    23    12    13    2
    24    12    19    1
    25    13    14    1
    26    13    36    1
    27    14    15    1
    28    14    16    2
    29    16    17    1
    30    16    37    1
    31    17    18    1
    32    17    19    2
    33    18    25    3
    34    19    38    1
    35    20    21    2
    36    20    22    2
    37    20    23    1
    38    23    26    1
    39    23    27    1
    40    23    28    1
