@<TRIPOS>MOLECULE
lig
  38   40 0 0 0
SMALL
NO_CHARGES


@<TRIPOS>ATOM
      1 O_00         27.5798    1.5235  -11.1849 o0      1  lig      -0.580229
      2 C_01         27.1359    0.2965  -11.6771 c4      1  lig       0.041917
      3 C_02         26.5177    0.4046  -13.0685 c5      1  lig       0.375054
      4 C_03         25.0171    0.5901  -12.8411 c6      1  lig      -0.029410
      5 C_04         24.8195   -0.0696  -11.5047 c7      1  lig      -0.033112
      6 C_05         26.0204   -0.2306  -10.8289 c8      1  lig      -0.055109
      7 C_06         26.0077   -0.7642   -9.5085 c9      1  lig       0.023082
      8 C_07         24.8269   -1.0884   -8.9088 cb      1  lig      -0.225066
      9 C_08         23.5995   -0.9354   -9.6045 ci      1  lig      -0.129266
     10 C_09         23.5962   -0.4510  -10.8982 cj      1  lig       0.178784
     11 O_0a         22.4844   -0.2684  -11.6800 o1      1  lig      -0.200461
     12 C_0b         21.2404   -0.5613  -11.1739 ck      1  lig       0.037195
     13 C_0c         20.5576    0.3996  -10.4453 cm      1  lig      -0.080470
     14 C_0d         19.2837    0.1051   -9.9375 cn      1  lig       0.103180
     15 F_0e         18.6058    1.0679   -9.2497 f0      1  lig      -0.152208
     16 C_0f         18.7338   -1.1345  -10.1306 co      1  lig      -0.144537
     17 C_0g         19.4232   -2.1096  -10.8804 cq      1  lig       0.138729
     18 F_0h         18.8528   -3.3134  -11.0758 f1      1  lig      -0.153581
     19 C_0i         20.6704   -1.8200  -11.3967 cr      1  lig      -0.131194
     20 S_0j         27.5347   -1.0647   -8.5760 s0      1  lig       0.809811
     21 O_0k         27.2199   -2.0185   -7.5306 o2      1  lig      -0.497829
     22 O_0l         28.5959   -1.3615   -9.5279 o3      1  lig      -0.482448
     23 C_0m         27.9440    0.6097   -7.7719 cs      1  lig       0.140078
     24 F_0n         27.8264    1.5664   -8.6650 f2      1  lig      -0.151673
     25 F_0o         27.0972    0.7943   -6.7402 f3      1  lig      -0.150518
     26 O_0p         27.0792    1.3725  -13.8825 o4      1  lig      -0.693674
     27 H_0q         28.4196    1.7763  -11.5732 h0      1  lig       0.386326
     28 H_0r         27.9878   -0.3852  -11.7231 h6      1  lig       0.096637
     29 H_0s         26.6601   -0.5701  -13.6036 h7      1  lig       0.021889
     30 H_0t         24.7751    1.6572  -12.7727 h8      1  lig       0.046695
     31 H_0u         24.4463    0.1629  -13.6523 h9      1  lig       0.046695
     32 H_0v         24.7825   -1.4708   -7.9005 hb      1  lig       0.190001
     33 H_0w         22.6825   -1.2208   -9.1092 hd      1  lig       0.152852
     34 H_0x         20.9920    1.3609  -10.2837 he      1  lig       0.146714
     35 H_0y         17.7876   -1.4003   -9.6966 hf      1  lig       0.170464
     36 H_0z         21.2084   -2.5776  -11.9529 hg      1  lig       0.159495
     37 H_10         28.9652    0.5721   -7.4332 hh      1  lig       0.195274
     38 H_11         27.6651    1.9280  -13.3465 hi      1  lig       0.429913
@<TRIPOS>BOND
     1     1     2    1
     2     1    27    1
     3     2     3    1
     4     2     6    1
     5     2    28    1
     6     3     4    1
     7     3    26    1
     8     3    29    1
     9     4     5    1
    10     4    30    1
    11     4    31    1
    12     5     6    2
    13     5    10    1
    14     6     7    1
    15     7     8    2
    16     7    20    1
    17     8     9    1
    18     8    32    1
    19     9    10    2
    20     9    33    1
    21    10    11    1
    22    11    12    1
    23    12    13    2
    24    12    19    1
    25    13    14    1
    26    13    34    1
    27    14    15    1
    28    14    16    2
    29    16    17    1
    30    16    35    1
    31    17    18    1
    32    17    19    2
    33    19    36    1
    34    20    21    2
    35    20    22    2
    36    20    23    1
    37    23    24    1
    38    23    25    1
    39    23    37    1
    40    26    38    1
