@<TRIPOS>MOLECULE
lig
  38   40 0 0 0
SMALL
NO_CHARGES


@<TRIPOS>ATOM
      1 O_00         27.8943    1.1788  -11.0631 o0      1  lig      -0.576450
      2 C_01         27.1609    0.1641  -11.7029 c4      1  lig       0.084932
      3 C_02         26.4962    0.6274  -13.0105 c5      1  lig       0.103625
      4 C_03         25.0720    0.1050  -12.9974 c6      1  lig      -0.053465
      5 C_04         24.8103   -0.1873  -11.5381 c7      1  lig       0.030390
      6 C_05         26.0092   -0.2725  -10.8246 c8      1  lig      -0.048516
      7 C_06         26.0063   -0.6974   -9.4871 c9      1  lig      -0.026876
      8 C_07         24.7861   -0.9464   -8.8596 cb      1  lig      -0.152613
      9 C_08         23.5916   -0.8530   -9.5671 ci      1  lig      -0.155365
     10 C_09         23.6031   -0.5017  -10.9219 cj      1  lig       0.098149
     11 O_0a         22.4930   -0.4333  -11.7294 o1      1  lig      -0.232279
     12 C_0b         21.2454   -0.6638  -11.2213 ck      1  lig       0.082116
     13 C_0c         20.6244   -1.8866  -11.4633 cm      1  lig      -0.111463
     14 C_0d         19.3585   -2.1311  -10.9427 cn      1  lig       0.176044
     15 F_0e         18.7399   -3.3039  -11.1763 f0      1  lig      -0.163388
     16 C_0f         18.7159   -1.1569  -10.1866 co      1  lig      -0.155634
     17 C_0g         19.3156    0.0868   -9.9795 cq      1  lig      -0.097536
     18 C_0h         18.6351    1.1380   -9.2464 cr      1  lig       0.373054
     19 C_0i         20.5951    0.3214  -10.4759 cs      1  lig      -0.072737
     20 S_0j         27.5155   -0.9389   -8.5422 s0      1  lig       0.932446
     21 O_0k         27.2187   -1.8839   -7.4633 o2      1  lig      -0.560526
     22 O_0l         28.6096   -1.2396   -9.4636 o3      1  lig      -0.554955
     23 C_0m         27.8361    0.7467   -7.7905 ct      1  lig      -0.194743
     24 F_0n         26.3889    1.9565  -13.0245 f1      1  lig      -0.246443
     25 N_0o         18.0971    1.9749   -8.6636 n0      1  lig      -0.442200
     26 H_0p         28.5017    1.6054  -11.6875 h0      1  lig       0.424228
     27 H_0q         27.8028   -0.6923  -11.9073 h6      1  lig       0.123053
     28 H_0r         27.0542    0.3687  -13.9106 h7      1  lig       0.095392
     29 H_0s         25.0170   -0.8251  -13.5618 h8      1  lig       0.076305
     30 H_0t         24.3529    0.7937  -13.4436 h9      1  lig       0.076305
     31 H_0u         24.7564   -1.2393   -7.8226 hb      1  lig       0.185545
     32 H_0v         22.6707   -1.0996   -9.0644 hd      1  lig       0.172491
     33 H_0w         21.1293   -2.6489  -12.0348 he      1  lig       0.161649
     34 H_0x         17.7656   -1.4057   -9.7616 hf      1  lig       0.188402
     35 H_0y         21.0858    1.2560  -10.2638 hg      1  lig       0.162458
     36 H_0z         28.8700    0.7613   -7.4646 hh      1  lig       0.099535
     37 H_10         27.1544    0.8944   -6.9586 hi      1  lig       0.099535
     38 H_11         27.6817    1.5165   -8.5435 hj      1  lig       0.099535
@<TRIPOS>BOND
     1     1     2    1
     2     1    26    1
     3     2     3    1
     4     2     6    1
     5     2    27    1
     6     3     4    1
     7     3    24    1
     8     3    28    1
     9     4     5    1
    10     4    29    1
    11     4    30    1
    12     5     6    2
    13     5    10    1
    14     6     7    1
    15     7     8    2
    16     7    20    1
    17     8     9    1
    18     8    31    1
    19     9    10    2
    20     9    32    1
    21    10    11    1
    22    11    12    1
    23    12    13    2
    24    12    19    1
    25    13    14    1
    26    13    33    1
    27    14    15    1
    28    14    16    2
    29    16    17    1
    30    16    34    1
    31    17    18    1
    32    17    19    2
    33    18    25    3
    34    19    35    1
    35    20    21    2
    36    20    22    2
    37    20    23    1
    38    23    36    1
    39    23    37    1
    40    23    38    1
