@<TRIPOS>MOLECULE
lig
  38   40 0 0 0
SMALL
NO_CHARGES


@<TRIPOS>ATOM
      1 O_00         27.5728    1.5601  -11.1459 o0      1  lig      -0.566438
      2 C_01         27.1536    0.3088  -11.6552 c4      1  lig       0.065171
      3 C_02         26.5252    0.3787  -13.0559 c5      1  lig       0.394798
      4 C_03         25.0351    0.5810  -12.8466 c6      1  lig      -0.117180
      5 C_04         24.8123   -0.0916  -11.5082 c7      1  lig       0.034033
      6 C_05         26.0213   -0.2538  -10.8166 c8      1  lig      -0.061597
      7 C_06         26.0217   -0.7899   -9.5190 c9      1  lig      -0.030133
      8 C_07         24.8061   -1.1035   -8.9088 cb      1  lig      -0.159938
      9 C_08         23.6060   -0.9317   -9.5917 ci      1  lig      -0.197590
     10 C_09         23.6085   -0.4312  -10.8990 cj      1  lig       0.216424
     11 O_0a         22.4887   -0.2465  -11.6759 o1      1  lig      -0.296745
     12 C_0b         21.2536   -0.5375  -11.1765 ck      1  lig       0.149880
     13 C_0c         20.6850   -1.7900  -11.3895 cm      1  lig       0.022315
     14 C_0d         19.4306   -2.0624  -10.8562 cn      1  lig      -0.108008
     15 Cl0e         18.6842   -3.5700  -11.0979 a0      1  lig      -0.060750
     16 C_0f         18.7499   -1.1042  -10.1192 co      1  lig      -0.047419
     17 C_0g         19.2995    0.1632   -9.9426 cq      1  lig      -0.047457
     18 C_0h         18.5790    1.1976   -9.2292 cr      1  lig       0.348910
     19 C_0i         20.5645    0.4307  -10.4478 cs      1  lig      -0.145353
     20 S_0j         27.5212   -1.0658   -8.5765 s0      1  lig       0.943772
     21 O_0k         27.2091   -1.9751   -7.4734 o2      1  lig      -0.561278
     22 O_0l         28.6014   -1.4067   -9.5003 o3      1  lig      -0.553687
     23 C_0m         27.9046    0.6147   -7.8636 ct      1  lig      -0.232925
     24 F_0n         27.0583    1.3232  -13.8300 f0      1  lig      -0.223477
     25 F_0o         26.6754   -0.7993  -13.6647 f1      1  lig      -0.233640
     26 N_0p         18.0104    2.0266   -8.6666 n0      1  lig      -0.434390
     27 H_0q         28.3370    1.8866  -11.6617 h0      1  lig       0.415177
     28 H_0r         28.0013   -0.3730  -11.7036 h6      1  lig       0.144455
     29 H_0s         24.4365    0.1828  -13.6670 h7      1  lig       0.096978
     30 H_0t         24.7950    1.6418  -12.7665 h8      1  lig       0.096978
     31 H_0u         24.7820   -1.4948   -7.9039 h9      1  lig       0.192304
     32 H_0v         22.6892   -1.2153   -9.0980 hb      1  lig       0.164826
     33 H_0w         21.2216   -2.5514  -11.9357 hd      1  lig       0.118915
     34 H_0x         17.8153   -1.3857   -9.6829 he      1  lig       0.164003
     35 H_0y         21.0238    1.3833  -10.2559 hf      1  lig       0.181757
     36 H_0z         28.8492    0.5007   -7.3454 hg      1  lig       0.109103
     37 H_10         27.1052    0.9088   -7.1861 hh      1  lig       0.109103
     38 H_11         28.0235    1.3382   -8.6638 hi      1  lig       0.109103
@<TRIPOS>BOND
     1     1     2    1
     2     1    27    1
     3     2     3    1
     4     2     6    1
     5     2    28    1
     6     3     4    1
     7     3    24    1
     8     3    25    1
     9     4     5    1
    10     4    29    1
    11     4    30    1
    12     5     6    2
    13     5    10    1
    14     6     7    1
    15     7     8    2
    16     7    20    1
    17     8     9    1
    18     8    31    1
    19     9    10    2
    20     9    32    1
    21    10    11    1
    22    11    12    1
    23    12    13    2
    24    12    19    1
    25    13    14    1
    26    13    33    1
    27    14    15    1
    28    14    16    2
    29    16    17    1
    30    16    34    1
    31    17    18    1
    32    17    19    2
    33    18    26    3
    34    19    35    1
    35    20    21    2
    36    20    22    2
    37    20    23    1
    38    23    36    1
    39    23    37    1
    40    23    38    1
