@<TRIPOS>MOLECULE
lig
  37   39 0 0 0
SMALL
NO_CHARGES


@<TRIPOS>ATOM
      1 O_00         27.5822    1.5627  -11.2551 o0      1  lig      -0.616820
      2 C_01         27.1468    0.2863  -11.6761 c4      1  lig       0.049245
      3 C_02         26.5086    0.3643  -13.0642 c5      1  lig       0.403839
      4 C_03         25.0265    0.6075  -12.8332 c6      1  lig      -0.059164
      5 C_04         24.7967   -0.0605  -11.4946 c7      1  lig       0.031078
      6 C_05         26.0077   -0.2336  -10.8115 c8      1  lig      -0.028160
      7 C_06         26.0091   -0.7786   -9.5174 c9      1  lig       0.015295
      8 C_07         24.7944   -1.0867   -8.9034 cb      1  lig      -0.176685
      9 C_08         23.5936   -0.9312   -9.5951 ci      1  lig      -0.213460
     10 C_09         23.5911   -0.4269  -10.8990 cj      1  lig       0.215871
     11 O_0a         22.4730   -0.2997  -11.6967 o1      1  lig      -0.314620
     12 C_0b         21.2211   -0.5557  -11.2088 ck      1  lig       0.084421
     13 C_0c         20.5807   -1.7704  -11.4636 cm      1  lig       0.272880
     14 N_0d         19.3293   -2.0485  -11.0244 n0      1  lig      -0.546294
     15 C_0e         18.6868   -1.0883  -10.3158 cn      1  lig       0.224479
     16 C_0f         19.2441    0.1607  -10.0304 co      1  lig      -0.083242
     17 C_0g         18.5232    1.1702   -9.2782 cq      1  lig       0.275527
     18 C_0h         20.5375    0.4137  -10.4764 cr      1  lig      -0.064228
     19 S_0i         27.5181   -1.0772   -8.5972 s0      1  lig       0.788789
     20 O_0j         27.2199   -2.0291   -7.5251 o2      1  lig      -0.482819
     21 O_0k         28.5736   -1.4146   -9.5547 o3      1  lig      -0.474973
     22 C_0l         27.9098    0.6015   -7.8247 cs      1  lig       0.360002
     23 F_0m         27.0599    1.2997  -13.8390 f0      1  lig      -0.226193
     24 F_0n         26.6397   -0.8135  -13.6733 f1      1  lig      -0.237742
     25 N_0o         17.9557    1.9748   -8.6688 ng      1  lig      -0.405773
     26 F_0p         29.1729    0.5500   -7.4603 f2      1  lig      -0.102761
     27 F_0q         27.7563    1.5773   -8.6957 f3      1  lig      -0.100402
     28 F_0r         27.1098    0.7930   -6.7781 f4      1  lig      -0.137058
     29 H_0s         28.3814    1.8217  -11.7482 h0      1  lig       0.439083
     30 H_0t         27.9776   -0.4206  -11.7025 h6      1  lig       0.152700
     31 H_0u         24.4121    0.1832  -13.6241 h7      1  lig       0.080514
     32 H_0v         24.8083    1.6771  -12.7815 h8      1  lig       0.080514
     33 H_0w         24.7762   -1.4676   -7.8938 h9      1  lig       0.197393
     34 H_0x         22.6785   -1.2385   -9.1186 hb      1  lig       0.175498
     35 H_0y         21.0644   -2.5457  -12.0352 hd      1  lig       0.107000
     36 H_0z         17.7081   -1.3631   -9.9794 he      1  lig       0.130511
     37 H_10         21.0111    1.3563  -10.2603 hf      1  lig       0.185755
@<TRIPOS>BOND
     1     1     2    1
     2     1    29    1
     3     2     3    1
     4     2     6    1
     5     2    30    1
     6     3     4    1
     7     3    23    1
     8     3    24    1
     9     4     5    1
    10     4    31    1
    11     4    32    1
    12     5     6    2
    13     5    10    1
    14     6     7    1
    15     7     8    2
    16     7    19    1
    17     8     9    1
    18     8    33    1
    19     9    10    2
    20     9    34    1
    21    10    11    1
    22    11    12    1
    23    12    13    2
    24    12    18    1
    25    13    14    1
    26    13    35    1
    27    14    15    2
    28    15    16    1
    29    15    36    1
    30    16    17    1
    31    16    18    2
    32    17    25    3
    33    18    37    1
    34    19    20    2
    35    19    21    2
    36    19    22    1
    37    22    26    1
    38    22    27    1
    39    22    28    1
