@<TRIPOS>MOLECULE
lig
  38   40 0 0 0
SMALL
NO_CHARGES


@<TRIPOS>ATOM
      1 O_00         27.8741   -0.4334  -11.8881 o0      1  lig      -0.585045
      2 C_01         26.9533    0.5103  -11.4691 c4      1  lig       0.200476
      3 C_02         26.2123    1.1350  -12.6505 c5      1  lig       0.340268
      4 C_03         24.8814    0.4428  -12.7971 c6      1  lig      -0.110193
      5 C_04         24.6562   -0.1013  -11.4106 c7      1  lig      -0.007401
      6 C_05         25.8419   -0.1153  -10.6575 c8      1  lig      -0.081258
      7 C_06         25.8608   -0.7137   -9.3921 c9      1  lig       0.124599
      8 C_07         24.6666   -1.1821   -8.8556 cb      1  lig      -0.247601
      9 C_08         23.4957   -1.1640   -9.6018 ci      1  lig      -0.170586
     10 C_09         23.4866   -0.6454  -10.8961 cj      1  lig       0.230373
     11 O_0a         22.3959   -0.6294  -11.7424 o1      1  lig      -0.248981
     12 C_0b         21.1512   -0.8062  -11.2113 ck      1  lig       0.067696
     13 C_0c         20.5139   -2.0346  -11.3575 cm      1  lig      -0.109583
     14 C_0d         19.2861   -2.2462  -10.7434 cn      1  lig       0.193693
     15 C_0e         18.6869   -1.2275   -9.9984 co      1  lig      -0.147156
     16 C_0f         19.2935    0.0276   -9.9139 cq      1  lig      -0.113505
     17 C_0g         18.6677    1.1330   -9.2217 cr      1  lig       0.377405
     18 C_0h         20.5431    0.2205  -10.5011 cs      1  lig      -0.050410
     19 S_0i         27.3544   -0.9316   -8.4201 s0      1  lig       0.832432
     20 O_0j         27.0859   -2.0306   -7.4835 o2      1  lig      -0.515188
     21 O_0k         28.5108   -1.0162   -9.3142 o3      1  lig      -0.504548
     22 C_0l         27.4424    0.7020   -7.4764 ct      1  lig       0.090284
     23 F_0m         25.9408    2.3663  -12.2653 f0      1  lig      -0.231106
     24 F_0n         26.9134    1.1664  -13.7919 f1      1  lig      -0.211510
     25 N_0o         18.1713    2.0136   -8.6640 n0      1  lig      -0.437105
     26 F_0p         27.4016    1.6993   -8.3556 f2      1  lig      -0.148436
     27 F_0q         26.4012    0.7578   -6.6504 f3      1  lig      -0.154427
     28 F_0r         18.6855   -3.4418  -10.8633 f4      1  lig      -0.168485
     29 H_0s         28.6720    0.0152  -12.1950 h0      1  lig       0.412174
     30 H_0t         27.5009    1.2650  -10.9032 h6      1  lig       0.083629
     31 H_0u         24.9483   -0.3583  -13.5290 h7      1  lig       0.098427
     32 H_0v         24.0975    1.1265  -13.1204 h8      1  lig       0.098427
     33 H_0w         24.6404   -1.6102   -7.8694 h9      1  lig       0.209450
     34 H_0x         22.6040   -1.6081   -9.1858 hb      1  lig       0.165965
     35 H_0y         20.9886   -2.8350  -11.8914 hd      1  lig       0.166154
     36 H_0z         17.7800   -1.4545   -9.4636 he      1  lig       0.187518
     37 H_10         21.0611    1.1592  -10.3869 hf      1  lig       0.142492
     38 H_11         28.3614    0.7441   -6.8868 hg      1  lig       0.221062
@<TRIPOS>BOND
     1     1     2    1
     2     1    29    1
     3     2     3    1
     4     2     6    1
     5     2    30    1
     6     3     4    1
     7     3    23    1
     8     3    24    1
     9     4     5    1
    10     4    31    1
    11     4    32    1
    12     5     6    2
    13     5    10    1
    14     6     7    1
    15     7     8    2
    16     7    19    1
    17     8     9    1
    18     8    33    1
    19     9    10    2
    20     9    34    1
    21    10    11    1
    22    11    12    1
    23    12    13    2
    24    12    18    1
    25    13    14    1
    26    13    35    1
    27    14    15    2
    28    14    28    1
    29    15    16    1
    30    15    36    1
    31    16    17    1
    32    16    18    2
    33    17    25    3
    34    18    37    1
    35    19    20    2
    36    19    21    2
    37    19    22    1
    38    22    26    1
    39    22    27    1
    40    22    38    1
