@<TRIPOS>MOLECULE
lig
  36   38 0 0 0
SMALL
NO_CHARGES


@<TRIPOS>ATOM
      1 O_00         27.5859    1.5623  -11.2324 o0      1  lig      -0.574628
      2 C_01         27.1492    0.2971  -11.6733 c4      1  lig       0.050952
      3 C_02         26.5076    0.3637  -13.0705 c5      1  lig       0.391833
      4 C_03         25.0245    0.6054  -12.8334 c6      1  lig      -0.109093
      5 C_04         24.7996   -0.0551  -11.4938 c7      1  lig       0.021772
      6 C_05         26.0078   -0.2311  -10.8127 c8      1  lig      -0.020537
      7 C_06         26.0108   -0.7709   -9.5133 c9      1  lig       0.022010
      8 C_07         24.8035   -1.0874   -8.9001 cb      1  lig      -0.168577
      9 C_08         23.5881   -0.9333   -9.6008 ci      1  lig      -0.225704
     10 C_09         23.5951   -0.4351  -10.8957 cj      1  lig       0.232643
     11 O_0a         22.4690   -0.2899  -11.6964 o1      1  lig      -0.305782
     12 C_0b         21.2387   -0.6920  -11.2605 ck      1  lig       0.072785
     13 C_0c         20.3852    0.2262  -10.6417 cm      1  lig       0.015719
     14 C_0d         19.1164   -0.1734  -10.2278 cn      1  lig      -0.177879
     15 Cl0e         18.0692    0.9590   -9.4559 a0      1  lig      -0.082396
     16 C_0f         18.7285   -1.4968  -10.4568 co      1  lig       0.333112
     17 N_0g         19.5276   -2.4069  -11.0647 n0      1  lig      -0.563769
     18 C_0h         20.7667   -1.9978  -11.4607 cq      1  lig       0.248951
     19 S_0i         27.5322   -1.0704   -8.5909 s0      1  lig       0.809582
     20 O_0j         27.2287   -2.0196   -7.5193 o2      1  lig      -0.518379
     21 O_0k         28.5815   -1.4021   -9.5453 o3      1  lig      -0.505283
     22 C_0l         27.9369    0.6210   -7.8282 cr      1  lig       0.190386
     23 F_0m         27.8067    1.5658   -8.7311 f0      1  lig      -0.146609
     24 F_0n         27.0921    0.8174   -6.7982 f1      1  lig      -0.166673
     25 F_0o         27.0574    1.2966  -13.8388 f2      1  lig      -0.217214
     26 F_0p         26.6394   -0.8195  -13.6770 f3      1  lig      -0.238068
     27 H_0q         28.3654    1.8186  -11.7483 h0      1  lig       0.413915
     28 H_0r         27.9795   -0.4193  -11.6983 h6      1  lig       0.149393
     29 H_0s         24.8071    1.6777  -12.7817 h7      1  lig       0.092152
     30 H_0t         24.4128    0.1822  -13.6214 h8      1  lig       0.092152
     31 H_0u         24.7768   -1.4645   -7.8942 h9      1  lig       0.191564
     32 H_0v         22.6768   -1.2344   -9.1176 hb      1  lig       0.178729
     33 H_0w         20.7002    1.2442  -10.4779 hd      1  lig       0.158176
     34 H_0x         17.7565   -1.8493  -10.1507 he      1  lig       0.082772
     35 H_0y         21.3860   -2.7416  -11.9336 hf      1  lig       0.093829
     36 H_0z         28.9749    0.6019   -7.4639 hg      1  lig       0.178164
@<TRIPOS>BOND
     1     1     2    1
     2     1    27    1
     3     2     3    1
     4     2     6    1
     5     2    28    1
     6     3     4    1
     7     3    25    1
     8     3    26    1
     9     4     5    1
    10     4    29    1
    11     4    30    1
    12     5     6    2
    13     5    10    1
    14     6     7    1
    15     7     8    2
    16     7    19    1
    17     8     9    1
    18     8    31    1
    19     9    10    2
    20     9    32    1
    21    10    11    1
    22    11    12    1
    23    12    13    2
    24    12    18    1
    25    13    14    1
    26    13    33    1
    27    14    15    1
    28    14    16    2
    29    16    17    1
    30    16    34    1
    31    17    18    2
    32    18    35    1
    33    19    20    2
    34    19    21    2
    35    19    22    1
    36    22    23    1
    37    22    24    1
    38    22    36    1
