@<TRIPOS>MOLECULE
lig
  39   41 0 0 0
SMALL
NO_CHARGES


@<TRIPOS>ATOM
      1 O_00         27.4945    1.5901  -11.4326 o0      1  lig      -0.538040
      2 C_01         27.1374    0.2686  -11.7191 c4      1  lig       0.081620
      3 C_02         26.4953    0.3323  -13.0981 c5      1  lig       0.329816
      4 C_03         25.0217    0.5994  -12.8429 c6      1  lig      -0.061600
      5 C_04         24.8020   -0.0597  -11.4964 c7      1  lig       0.018788
      6 C_05         26.0153   -0.2255  -10.8167 c8      1  lig      -0.005623
      7 C_06         26.0241   -0.7593   -9.5118 c9      1  lig      -0.023473
      8 C_07         24.8061   -1.0787   -8.9024 cb      1  lig      -0.241852
      9 C_08         23.6060   -0.9317   -9.5932 ci      1  lig      -0.116719
     10 C_09         23.6016   -0.4258  -10.8989 cj      1  lig       0.158730
     11 O_0a         22.4847   -0.2873  -11.6913 o1      1  lig      -0.226771
     12 C_0b         21.2447   -0.5730  -11.1948 ck      1  lig       0.053570
     13 C_0c         20.5522    0.3978  -10.4720 cm      1  lig      -0.102412
     14 C_0d         19.2931    0.1248   -9.9600 cn      1  lig       0.111618
     15 F_0e         18.6203    1.0830   -9.2845 f0      1  lig      -0.152770
     16 C_0f         18.7413   -1.1375  -10.1417 co      1  lig      -0.148727
     17 C_0g         19.4210   -2.1088  -10.8684 cq      1  lig       0.144317
     18 F_0h         18.8530   -3.3145  -11.0601 f1      1  lig      -0.156070
     19 C_0i         20.6751   -1.8286  -11.4013 cr      1  lig      -0.132699
     20 S_0j         27.5391   -1.0647   -8.5878 s0      1  lig       0.990097
     21 O_0k         28.5975   -1.3882   -9.5392 o2      1  lig      -0.516601
     22 O_0l         27.2312   -2.0153   -7.5145 o3      1  lig      -0.544627
     23 N_0m         27.9407    0.4584   -7.8059 n0      1  lig      -0.650905
     24 F_0n         27.0378    1.2658  -13.8907 f2      1  lig      -0.211485
     25 F_0o         26.6284   -0.8376  -13.6973 f3      1  lig      -0.222910
     26 C_0p         28.4928    1.5464   -8.6066 cs      1  lig       0.070683
     27 H_0q         28.3741    1.7859  -11.8038 h0      1  lig       0.398023
     28 H_0r         27.9892   -0.4124  -11.7122 h6      1  lig       0.140091
     29 H_0s         24.8113    1.6720  -12.7864 h7      1  lig       0.080458
     30 H_0t         24.3984    0.1783  -13.6254 h8      1  lig       0.080458
     31 H_0u         24.7828   -1.4635   -7.8934 h9      1  lig       0.203446
     32 H_0v         22.6875   -1.2371   -9.1179 hb      1  lig       0.155800
     33 H_0w         20.9875    1.3612  -10.2718 hd      1  lig       0.155224
     34 H_0x         17.7955   -1.3802   -9.7072 he      1  lig       0.171358
     35 H_0y         21.2077   -2.5898  -11.9503 hf      1  lig       0.162164
     36 H_0z         28.3589    0.3734   -6.8803 hg      1  lig       0.389286
     37 H_10         28.5484    2.4694   -8.0394 hh      1  lig       0.052579
     38 H_11         27.7523    1.7872   -9.3272 hi      1  lig       0.052579
     39 H_12         29.4721    1.2647   -9.0380 hj      1  lig       0.052579
@<TRIPOS>BOND
     1     1     2    1
     2     1    27    1
     3     2     3    1
     4     2     6    1
     5     2    28    1
     6     3     4    1
     7     3    24    1
     8     3    25    1
     9     4     5    1
    10     4    29    1
    11     4    30    1
    12     5     6    2
    13     5    10    1
    14     6     7    1
    15     7     8    2
    16     7    20    1
    17     8     9    1
    18     8    31    1
    19     9    10    2
    20     9    32    1
    21    10    11    1
    22    11    12    1
    23    12    13    2
    24    12    19    1
    25    13    14    1
    26    13    33    1
    27    14    15    1
    28    14    16    2
    29    16    17    1
    30    16    34    1
    31    17    18    1
    32    17    19    2
    33    19    35    1
    34    20    21    2
    35    20    22    2
    36    20    23    1
    37    23    26    1
    38    23    36    1
    39    26    37    1
    40    26    38    1
    41    26    39    1
