@<TRIPOS>MOLECULE
lig
  37   39 0 0 0
SMALL
NO_CHARGES


@<TRIPOS>ATOM
      1 O_00         27.6272    1.5392  -11.1203 o0      1  lig      -0.612353
      2 C_01         27.1560    0.3040  -11.6456 c4      1  lig       0.110409
      3 C_02         26.5217    0.3806  -13.0460 c5      1  lig       0.384518
      4 C_03         25.0330    0.5955  -12.8364 c6      1  lig      -0.044271
      5 C_04         24.8086   -0.0746  -11.4954 c7      1  lig       0.023203
      6 C_05         26.0176   -0.2341  -10.8015 c8      1  lig      -0.070652
      7 C_06         26.0221   -0.7646   -9.5003 c9      1  lig      -0.085125
      8 C_07         24.8023   -1.0839   -8.8976 cb      1  lig      -0.150867
      9 C_08         23.6037   -0.9285   -9.5871 ci      1  lig      -0.181824
     10 C_09         23.6033   -0.4271  -10.8952 cj      1  lig       0.196798
     11 O_0a         22.4845   -0.2768  -11.6823 o1      1  lig      -0.260729
     12 C_0b         21.2452   -0.5718  -11.1881 ck      1  lig       0.099424
     13 C_0c         20.6754   -1.8264  -11.4017 cm      1  lig      -0.112655
     14 C_0d         19.4205   -2.1096  -10.8738 cn      1  lig       0.180614
     15 F_0e         18.8538   -3.3152  -11.0677 f0      1  lig      -0.165998
     16 C_0f         18.7369   -1.1453  -10.1422 co      1  lig      -0.129408
     17 C_0g         19.2852    0.1248   -9.9603 cq      1  lig      -0.120500
     18 C_0h         18.5778    1.1653   -9.2362 cr      1  lig       0.377435
     19 C_0i         20.5515    0.3943  -10.4623 cs      1  lig      -0.084041
     20 S_0j         27.5325   -1.0603   -8.5700 s0      1  lig       1.066596
     21 O_0k         27.2148   -1.9861   -7.4807 o2      1  lig      -0.531170
     22 O_0l         28.6045   -1.3793   -9.5081 o3      1  lig      -0.530877
     23 N_0m         27.9346    0.4720   -7.8610 n0      1  lig      -0.852529
     24 F_0n         27.0654    1.3180  -13.8219 f1      1  lig      -0.228476
     25 F_0o         26.6664   -0.7984  -13.6558 f2      1  lig      -0.230633
     26 N_0p         18.0227    1.9941   -8.6522 ng      1  lig      -0.438794
     27 H_0q         28.3555    1.8653  -11.6765 h0      1  lig       0.432693
     28 H_0r         27.9781   -0.4091  -11.7063 h6      1  lig       0.139720
     29 H_0s         24.4242    0.1890  -13.6462 h7      1  lig       0.076520
     30 H_0t         24.8013    1.6590  -12.7701 h8      1  lig       0.076520
     31 H_0u         24.7765   -1.4822   -7.8947 h9      1  lig       0.187708
     32 H_0v         22.6850   -1.2325   -9.1075 hb      1  lig       0.167836
     33 H_0w         21.2121   -2.5898  -11.9431 hd      1  lig       0.166024
     34 H_0x         17.8013   -1.4259   -9.7039 he      1  lig       0.183679
     35 H_0y         21.0089    1.3503  -10.2685 hf      1  lig       0.157657
     36 H_0z         27.2535    0.7935   -7.1729 hg      1  lig       0.401774
     37 H_10         28.1763    1.1767   -8.5625 hh      1  lig       0.401774
@<TRIPOS>BOND
     1     1     2    1
     2     1    27    1
     3     2     3    1
     4     2     6    1
     5     2    28    1
     6     3     4    1
     7     3    24    1
     8     3    25    1
     9     4     5    1
    10     4    29    1
    11     4    30    1
    12     5     6    2
    13     5    10    1
    14     6     7    1
    15     7     8    2
    16     7    20    1
    17     8     9    1
    18     8    31    1
    19     9    10    2
    20     9    32    1
    21    10    11    1
    22    11    12    1
    23    12    13    2
    24    12    19    1
    25    13    14    1
    26    13    33    1
    27    14    15    1
    28    14    16    2
    29    16    17    1
    30    16    34    1
    31    17    18    1
    32    17    19    2
    33    18    26    3
    34    19    35    1
    35    20    21    2
    36    20    22    2
    37    20    23    1
    38    23    36    1
    39    23    37    1
