@<TRIPOS>MOLECULE
lig
  40   42 0 0 0
SMALL
NO_CHARGES


@<TRIPOS>ATOM
      1 O_00         27.5290    1.5702  -11.4140 o0      1  lig      -0.539945
      2 C_01         27.1452    0.2616  -11.7016 c4      1  lig       0.079026
      3 C_02         26.5035    0.3509  -13.0777 c5      1  lig       0.311488
      4 C_03         25.0278    0.6163  -12.8283 c6      1  lig      -0.051591
      5 C_04         24.8030   -0.0491  -11.4879 c7      1  lig       0.027245
      6 C_05         26.0132   -0.2224  -10.8071 c8      1  lig      -0.008415
      7 C_06         26.0189   -0.7643   -9.5084 c9      1  lig      -0.020667
      8 C_07         24.8007   -1.0836   -8.9010 cb      1  lig      -0.237483
      9 C_08         23.6021   -0.9380   -9.5968 ci      1  lig      -0.124597
     10 C_09         23.6010   -0.4271  -10.9002 cj      1  lig       0.159473
     11 O_0a         22.4865   -0.2951  -11.6981 o1      1  lig      -0.262120
     12 C_0b         21.2462   -0.5782  -11.2011 ck      1  lig       0.117820
     13 C_0c         20.6750   -1.8342  -11.4016 cm      1  lig      -0.129312
     14 C_0d         19.4231   -2.1130  -10.8638 cn      1  lig       0.180620
     15 F_0e         18.8605   -3.3235  -11.0484 f0      1  lig      -0.166007
     16 C_0f         18.7415   -1.1394  -10.1398 co      1  lig      -0.125876
     17 C_0g         19.2943    0.1296   -9.9653 cq      1  lig      -0.137115
     18 C_0h         18.5740    1.1648   -9.2440 cr      1  lig       0.386273
     19 C_0i         20.5558    0.3964  -10.4841 cs      1  lig      -0.079918
     20 S_0j         27.5377   -1.0695   -8.5948 s0      1  lig       0.994001
     21 O_0k         27.2346   -2.0117   -7.5154 o2      1  lig      -0.543071
     22 O_0l         28.5882   -1.4038   -9.5540 o3      1  lig      -0.517296
     23 N_0m         27.9451    0.4615   -7.8301 n0      1  lig      -0.649217
     24 F_0n         27.0549    1.2897  -13.8570 f1      1  lig      -0.206172
     25 F_0o         26.6287   -0.8235  -13.6847 f2      1  lig      -0.218686
     26 N_0p         18.0045    1.9857   -8.6629 ng      1  lig      -0.443847
     27 C_0q         28.5002    1.5466   -8.6218 ct      1  lig       0.069826
     28 H_0r         28.4232    1.7635  -11.7473 h0      1  lig       0.401453
     29 H_0s         27.9845   -0.4335  -11.6910 h6      1  lig       0.145317
     30 H_0t         24.4120    0.1762  -13.6053 h7      1  lig       0.081194
     31 H_0u         24.8119    1.6889  -12.7872 h8      1  lig       0.081194
     32 H_0v         24.7814   -1.4584   -7.8884 h9      1  lig       0.202494
     33 H_0w         22.6799   -1.2369   -9.1253 hb      1  lig       0.161218
     34 H_0x         21.2052   -2.5946  -11.9528 hd      1  lig       0.168811
     35 H_0y         17.7929   -1.3901   -9.7095 he      1  lig       0.182166
     36 H_0z         21.0125    1.3565  -10.3126 hf      1  lig       0.161263
     37 H_10         28.3572    0.4001   -6.9030 hg      1  lig       0.389872
     38 H_11         28.5305    2.4836   -8.0830 hh      1  lig       0.053527
     39 H_12         27.7869    1.7713   -9.3533 hi      1  lig       0.053527
     40 H_13         29.4618    1.2797   -9.0473 hj      1  lig       0.053527
@<TRIPOS>BOND
     1     1     2    1
     2     1    28    1
     3     2     3    1
     4     2     6    1
     5     2    29    1
     6     3     4    1
     7     3    24    1
     8     3    25    1
     9     4     5    1
    10     4    30    1
    11     4    31    1
    12     5     6    2
    13     5    10    1
    14     6     7    1
    15     7     8    2
    16     7    20    1
    17     8     9    1
    18     8    32    1
    19     9    10    2
    20     9    33    1
    21    10    11    1
    22    11    12    1
    23    12    13    2
    24    12    19    1
    25    13    14    1
    26    13    34    1
    27    14    15    1
    28    14    16    2
    29    16    17    1
    30    16    35    1
    31    17    18    1
    32    17    19    2
    33    18    26    3
    34    19    36    1
    35    20    21    2
    36    20    22    2
    37    20    23    1
    38    23    27    1
    39    23    37    1
    40    27    38    1
    41    27    39    1
    42    27    40    1
