@<TRIPOS>MOLECULE
lig
  36   38 0 0 0
SMALL
NO_CHARGES


@<TRIPOS>ATOM
      1 O_00         27.6349    1.5390  -11.1120 o0      1  lig      -0.595267
      2 C_01         27.1610    0.3080  -11.6434 c4      1  lig       0.130262
      3 C_02         26.5246    0.3818  -13.0435 c5      1  lig       0.393969
      4 C_03         25.0349    0.5918  -12.8363 c6      1  lig      -0.098106
      5 C_04         24.8128   -0.0780  -11.4926 c7      1  lig       0.023291
      6 C_05         26.0207   -0.2330  -10.7985 c8      1  lig      -0.064692
      7 C_06         26.0265   -0.7616   -9.4949 c9      1  lig      -0.104300
      8 C_07         24.8081   -1.0797   -8.8934 cb      1  lig      -0.147697
      9 C_08         23.6071   -0.9271   -9.5818 ci      1  lig      -0.179247
     10 C_09         23.6051   -0.4285  -10.8927 cj      1  lig       0.220492
     11 O_0a         22.4843   -0.2729  -11.6739 o1      1  lig      -0.254968
     12 C_0b         21.2426   -0.5644  -11.1778 ck      1  lig       0.044449
     13 C_0c         20.5460    0.3947  -10.4507 cm      1  lig      -0.122120
     14 C_0d         19.2853    0.1164   -9.9393 cn      1  lig       0.142620
     15 F_0e         18.6069    1.0601   -9.2520 f0      1  lig      -0.156153
     16 C_0f         18.7375   -1.1466  -10.1378 co      1  lig      -0.158752
     17 C_0g         19.4161   -2.1029  -10.8774 cq      1  lig       0.114466
     18 F_0h         18.8465   -3.3080  -11.0783 f1      1  lig      -0.151160
     19 C_0i         20.6729   -1.8221  -11.4011 cr      1  lig      -0.074403
     20 S_0j         27.5432   -1.0730   -8.5723 s0      1  lig       1.063693
     21 O_0k         28.5992   -1.4076   -9.5147 o2      1  lig      -0.531202
     22 O_0l         27.2219   -1.9934   -7.4762 o3      1  lig      -0.532913
     23 N_0m         27.9698    0.4559   -7.8597 n0      1  lig      -0.840553
     24 F_0n         27.0650    1.3224  -13.8196 f2      1  lig      -0.225477
     25 F_0o         26.6750   -0.7960  -13.6529 f3      1  lig      -0.238144
     26 H_0p         28.3650    1.8699  -11.6666 h0      1  lig       0.420600
     27 H_0q         27.9821   -0.4047  -11.7081 h6      1  lig       0.130242
     28 H_0r         24.7980    1.6524  -12.7661 h7      1  lig       0.089861
     29 H_0s         24.4281    0.1890  -13.6510 h8      1  lig       0.089861
     30 H_0t         24.7791   -1.4795   -7.8909 h9      1  lig       0.187884
     31 H_0u         22.6905   -1.2302   -9.1017 hb      1  lig       0.158615
     32 H_0v         20.9792    1.3620  -10.2594 hd      1  lig       0.160620
     33 H_0w         17.8013   -1.4072   -9.6924 he      1  lig       0.176649
     34 H_0x         21.2096   -2.5824  -11.9444 hf      1  lig       0.141678
     35 H_0y         27.3130    0.7844   -7.1551 hg      1  lig       0.392951
     36 H_0z         28.2244    1.1712   -8.5468 hh      1  lig       0.392951
@<TRIPOS>BOND
     1     1     2    1
     2     1    26    1
     3     2     3    1
     4     2     6    1
     5     2    27    1
     6     3     4    1
     7     3    24    1
     8     3    25    1
     9     4     5    1
    10     4    28    1
    11     4    29    1
    12     5     6    2
    13     5    10    1
    14     6     7    1
    15     7     8    2
    16     7    20    1
    17     8     9    1
    18     8    30    1
    19     9    10    2
    20     9    31    1
    21    10    11    1
    22    11    12    1
    23    12    13    2
    24    12    19    1
    25    13    14    1
    26    13    32    1
    27    14    15    1
    28    14    16    2
    29    16    17    1
    30    16    33    1
    31    17    18    1
    32    17    19    2
    33    19    34    1
    34    20    21    2
    35    20    22    2
    36    20    23    1
    37    23    35    1
    38    23    36    1
