@<TRIPOS>MOLECULE
lig
  40   43 0 0 0
SMALL
NO_CHARGES


@<TRIPOS>ATOM
      1 O_00         27.8850    0.9567  -11.2360 o0      1  lig      -0.616292
      2 C_01         26.9261    0.0753  -11.8170 c4      1  lig       0.151366
      3 C_02         26.2094    0.6442  -13.0561 c5      1  lig       0.541696
      4 C_03         24.7392    0.3196  -12.9441 c6      1  lig      -0.092559
      5 C_04         24.5470   -0.0317  -11.5054 c7      1  lig      -0.005420
      6 C_05         25.7726   -0.2517  -10.8650 c8      1  lig      -0.089412
      7 C_06         25.7777   -0.7392   -9.5446 c9      1  lig       0.019793
      8 C_07         24.5645   -0.9350   -8.8805 cb      1  lig      -0.238822
      9 C_08         23.3575   -0.7307   -9.5431 ci      1  lig      -0.135678
     10 C_09         23.3449   -0.3000  -10.8665 cj      1  lig       0.189465
     11 O_0a         22.1962   -0.0469  -11.5824 o1      1  lig      -0.221708
     12 C_0b         21.0227   -0.6665  -11.2348 ck      1  lig       0.042128
     13 C_0c         20.7734   -2.0189  -11.4693 cm      1  lig      -0.157100
     14 C_0d         19.5565   -2.5922  -11.1030 cn      1  lig      -0.240671
     15 C_0e         18.5893   -1.8651  -10.4156 co      1  lig       0.190603
     16 C_0f         18.8672   -0.5266  -10.1509 cq      1  lig       0.028764
     17 C_0g         20.0493    0.0994  -10.5813 cr      1  lig       0.028269
     18 S_0h         27.2967   -1.1713   -8.6869 s0      1  lig       0.786824
     19 O_0i         28.2927   -1.4686   -9.7151 o2      1  lig      -0.475186
     20 O_0j         26.9743   -2.2137   -7.7071 o3      1  lig      -0.469981
     21 C_0k         27.7762    0.4223   -7.7641 cs      1  lig       0.292351
     22 F_0l         26.6880    0.1745  -14.2084 f0      1  lig      -0.284316
     23 F_0m         26.3100    1.9665  -13.0637 f1      1  lig      -0.243440
     24 F_0n         27.0858    0.4659   -6.6244 f2      1  lig      -0.113069
     25 F_0o         29.0853    0.3799   -7.5200 f3      1  lig      -0.082673
     26 F_0p         27.4854    1.4761   -8.5193 f4      1  lig      -0.098041
     27 F_0q         17.4363   -2.4330  -10.0129 f5      1  lig      -0.180620
     28 C_0r         19.8832    1.4504  -10.1680 ct      1  lig       0.077449
     29 N_0s         18.7801    1.6341   -9.4994 n0      1  lig      -0.422835
     30 N_0t         18.1820    0.4453   -9.4619 ng      1  lig      -0.069281
     31 H_0u         28.4717    1.3190  -11.9120 h0      1  lig       0.409401
     32 H_0v         27.4183   -0.8521  -12.0998 h6      1  lig       0.106056
     33 H_0w         24.0911    1.1044  -13.3289 h7      1  lig       0.078253
     34 H_0x         24.5073   -0.5967  -13.4710 h8      1  lig       0.078253
     35 H_0y         24.5427   -1.2805   -7.8640 h9      1  lig       0.207725
     36 H_0z         22.4170   -0.9153   -9.0626 hb      1  lig       0.158835
     37 H_10         21.5226   -2.6299  -11.9472 hd      1  lig       0.175672
     38 H_11         19.3705   -3.6281  -11.3315 he      1  lig       0.197703
     39 H_12         20.5664    2.2737  -10.2644 hf      1  lig       0.152065
     40 H_13         17.2735    0.3439   -9.0291 hg      1  lig       0.324433
@<TRIPOS>BOND
     1     1     2    1
     2     1    31    1
     3     2     3    1
     4     2     6    1
     5     2    32    1
     6     3     4    1
     7     3    22    1
     8     3    23    1
     9     4     5    1
    10     4    33    1
    11     4    34    1
    12     5     6    2
    13     5    10    1
    14     6     7    1
    15     7     8    2
    16     7    18    1
    17     8     9    1
    18     8    35    1
    19     9    10    2
    20     9    36    1
    21    10    11    1
    22    11    12    1
    23    12    13    2
    24    12    17    1
    25    13    14    1
    26    13    37    1
    27    14    15    2
    28    14    38    1
    29    15    16    1
    30    15    27    1
    31    16    17    2
    32    16    30    1
    33    17    28    1
    34    18    19    2
    35    18    20    2
    36    18    21    1
    37    21    24    1
    38    21    25    1
    39    21    26    1
    40    28    29    2
    41    28    39    1
    42    29    30    1
    43    30    40    1
