@<TRIPOS>MOLECULE
lig
  38   40 0 0 0
SMALL
NO_CHARGES


@<TRIPOS>ATOM
      1 O_00         27.9755    1.1669  -10.8324 o0      1  lig      -0.583395
      2 C_01         27.2390    0.1841  -11.5554 c4      1  lig       0.139410
      3 C_02         26.5477    0.7660  -12.7999 c5      1  lig       0.081855
      4 C_03         25.2049    0.0635  -12.9045 c6      1  lig       0.064163
      5 C_04         24.8937   -0.3001  -11.4771 c7      1  lig       0.038527
      6 C_05         26.0788   -0.3727  -10.7381 c8      1  lig      -0.028090
      7 C_06         26.0458   -0.8976   -9.4395 c9      1  lig      -0.039782
      8 C_07         24.8156   -1.2035   -8.8587 cb      1  lig      -0.151013
      9 C_08         23.6292   -1.0361   -9.5643 ci      1  lig      -0.198757
     10 C_09         23.6659   -0.6025  -10.8934 cj      1  lig       0.133921
     11 O_0a         22.5632   -0.4733  -11.7055 o1      1  lig      -0.222038
     12 C_0b         21.3077   -0.7045  -11.2158 ck      1  lig       0.075607
     13 C_0c         20.6819   -1.9238  -11.4625 cm      1  lig      -0.089221
     14 C_0d         19.4032   -2.1541  -10.9696 cn      1  lig       0.174875
     15 F_0e         18.7805   -3.3217  -11.2165 f0      1  lig      -0.169756
     16 C_0f         18.7532   -1.1722  -10.2314 co      1  lig      -0.150688
     17 C_0g         19.3626    0.0638  -10.0081 cq      1  lig      -0.074310
     18 C_0h         18.6843    1.1242   -9.2858 cr      1  lig       0.369231
     19 C_0i         20.6520    0.2828  -10.4822 cs      1  lig      -0.111641
     20 S_0j         27.5268   -1.2129   -8.4905 s0      1  lig       0.939389
     21 O_0k         27.2281   -2.2833   -7.5336 o2      1  lig      -0.545164
     22 O_0l         28.6527   -1.3615   -9.4143 o3      1  lig      -0.556991
     23 F_0m         26.2783    2.0422  -12.5491 f1      1  lig      -0.184776
     24 N_0n         18.1517    1.9670   -8.7031 n0      1  lig      -0.446985
     25 F_0o         24.3119    0.8426  -13.5117 f2      1  lig      -0.190236
     26 C_0p         27.7464    0.3832   -7.5445 ct      1  lig      -0.337315
     27 H_0q         28.6278    1.5780  -11.4159 h0      1  lig       0.415780
     28 H_0r         27.8865   -0.6394  -11.8578 h6      1  lig       0.075648
     29 H_0s         27.1456    0.7501  -13.7119 h7      1  lig       0.128495
     30 H_0t         25.2774   -0.8290  -13.5267 h8      1  lig       0.110155
     31 H_0u         24.7771   -1.6047   -7.8636 h9      1  lig       0.191937
     32 H_0v         22.6940   -1.2991   -9.0913 hb      1  lig       0.191788
     33 H_0w         21.1919   -2.6924  -12.0201 hd      1  lig       0.151039
     34 H_0x         17.7867   -1.4057   -9.8300 he      1  lig       0.182335
     35 H_0y         21.1501    1.2108  -10.2637 hf      1  lig       0.176581
     36 H_0z         28.7144    0.3301   -7.0642 hg      1  lig       0.146474
     37 H_10         26.9498    0.4724   -6.8102 hh      1  lig       0.146474
     38 H_11         27.7216    1.2218   -8.2383 hi      1  lig       0.146474
@<TRIPOS>BOND
     1     1     2    1
     2     1    27    1
     3     2     3    1
     4     2     6    1
     5     2    28    1
     6     3     4    1
     7     3    23    1
     8     3    29    1
     9     4     5    1
    10     4    25    1
    11     4    30    1
    12     5     6    2
    13     5    10    1
    14     6     7    1
    15     7     8    2
    16     7    20    1
    17     8     9    1
    18     8    31    1
    19     9    10    2
    20     9    32    1
    21    10    11    1
    22    11    12    1
    23    12    13    2
    24    12    19    1
    25    13    14    1
    26    13    33    1
    27    14    15    1
    28    14    16    2
    29    16    17    1
    30    16    34    1
    31    17    18    1
    32    17    19    2
    33    18    24    3
    34    19    35    1
    35    20    21    2
    36    20    22    2
    37    20    26    1
    38    26    36    1
    39    26    37    1
    40    26    38    1
