@<TRIPOS>MOLECULE
lig
  39   41 0 0 0
SMALL
NO_CHARGES


@<TRIPOS>ATOM
      1 N_00         27.5740    1.5625  -11.2291 n0      1  lig      -0.912830
      2 C_01         27.1541    0.2576  -11.6910 c4      1  lig       0.086445
      3 C_02         26.5095    0.3461  -13.0777 c5      1  lig       0.394136
      4 C_03         25.0290    0.5954  -12.8450 c6      1  lig      -0.086405
      5 C_04         24.8037   -0.0602  -11.4984 c7      1  lig       0.012463
      6 C_05         26.0092   -0.2240  -10.8090 c8      1  lig      -0.047701
      7 C_06         26.0109   -0.7777   -9.5207 c9      1  lig       0.016046
      8 C_07         24.7959   -1.0889   -8.9045 cb      1  lig      -0.218225
      9 C_08         23.5992   -0.9223   -9.5915 ci      1  lig      -0.168272
     10 C_09         23.5984   -0.4194  -10.8961 cj      1  lig       0.199410
     11 O_0a         22.4824   -0.2843  -11.6898 o0      1  lig      -0.231865
     12 C_0b         21.2448   -0.5748  -11.1956 ck      1  lig       0.069474
     13 C_0c         20.6740   -1.8289  -11.4024 cm      1  lig      -0.095406
     14 C_0d         19.4243   -2.1094  -10.8700 cn      1  lig       0.176772
     15 F_0e         18.8514   -3.3146  -11.0611 f0      1  lig      -0.165273
     16 C_0f         18.7414   -1.1444  -10.1434 co      1  lig      -0.131571
     17 C_0g         19.2871    0.1244   -9.9694 cq      1  lig      -0.101959
     18 C_0h         18.5764    1.1678   -9.2409 cr      1  lig       0.367074
     19 C_0i         20.5463    0.3914  -10.4687 cs      1  lig      -0.085403
     20 S_0j         27.5079   -1.0807   -8.5946 s0      1  lig       0.817604
     21 O_0k         28.5661   -1.4034   -9.5526 o1      1  lig      -0.481432
     22 O_0l         27.2082   -2.0475   -7.5362 o2      1  lig      -0.478757
     23 C_0m         27.8937    0.5866   -7.7878 ct      1  lig       0.287694
     24 F_0n         27.0532    1.2780  -13.8693 f1      1  lig      -0.209689
     25 F_0o         26.6434   -0.8310  -13.6723 f2      1  lig      -0.241591
     26 N_0p         18.0158    1.9913   -8.6668 ng      1  lig      -0.433263
     27 F_0q         29.1657    0.5265   -7.4607 f3      1  lig      -0.083255
     28 F_0r         27.7528    1.6123   -8.6183 f4      1  lig      -0.090266
     29 F_0s         27.1110    0.7689   -6.7327 f5      1  lig      -0.113678
     30 H_0t         28.0811    1.4599  -10.3770 h0      1  lig       0.370599
     31 H_0u         28.2888    1.9365  -11.8603 h6      1  lig       0.370599
     32 H_0v         28.0018   -0.4423  -11.7297 h7      1  lig       0.139845
     33 H_0w         24.4058    0.1882  -13.6467 h8      1  lig       0.092417
     34 H_0x         24.8104    1.6599  -12.7803 h9      1  lig       0.092417
     35 H_0y         24.7747   -1.4836   -7.9003 hb      1  lig       0.201834
     36 H_0z         22.6851   -1.2365   -9.1107 hd      1  lig       0.167083
     37 H_10         21.2092   -2.5946  -11.9437 he      1  lig       0.164518
     38 H_11         17.8072   -1.4207   -9.7067 hf      1  lig       0.185340
     39 H_12         21.0053    1.3469  -10.2638 hg      1  lig       0.165071
@<TRIPOS>BOND
     1     1     2    1
     2     1    30    1
     3     1    31    1
     4     2     3    1
     5     2     6    1
     6     2    32    1
     7     3     4    1
     8     3    24    1
     9     3    25    1
    10     4     5    1
    11     4    33    1
    12     4    34    1
    13     5     6    2
    14     5    10    1
    15     6     7    1
    16     7     8    2
    17     7    20    1
    18     8     9    1
    19     8    35    1
    20     9    10    2
    21     9    36    1
    22    10    11    1
    23    11    12    1
    24    12    13    2
    25    12    19    1
    26    13    14    1
    27    13    37    1
    28    14    15    1
    29    14    16    2
    30    16    17    1
    31    16    38    1
    32    17    18    1
    33    17    19    2
    34    18    26    3
    35    19    39    1
    36    20    21    2
    37    20    22    2
    38    20    23    1
    39    23    27    1
    40    23    28    1
    41    23    29    1
