@<TRIPOS>MOLECULE
lig
  31   32 0 0 0
SMALL
NO_CHARGES


@<TRIPOS>ATOM
      1 Cl00         27.5485    0.3136  -11.5391 a0      1  lig       0.046115
      2 C_01         24.8372   -0.0289  -11.4983 c4      1  lig       0.122512
      3 C_02         26.0452   -0.2007  -10.8100 c5      1  lig      -0.075485
      4 C_03         26.0339   -0.7721   -9.5247 c6      1  lig      -0.024724
      5 C_04         24.8128   -1.0812   -8.9236 c7      1  lig      -0.110274
      6 C_05         23.6194   -0.9276   -9.6191 c8      1  lig      -0.218293
      7 C_06         23.6217   -0.4318  -10.9248 c9      1  lig       0.216036
      8 O_07         22.4810   -0.3037  -11.6892 o0      1  lig      -0.203329
      9 C_08         21.2399   -0.5885  -11.1701 cb      1  lig       0.067288
     10 C_09         20.6662   -1.8374  -11.3902 ci      1  lig      -0.076227
     11 C_0a         19.4091   -2.1170  -10.8684 cj      1  lig       0.169936
     12 F_0b         18.8393   -3.3237  -11.0680 f0      1  lig      -0.160011
     13 C_0c         18.7264   -1.1511  -10.1393 ck      1  lig      -0.142079
     14 C_0d         19.2825    0.1244   -9.9582 cm      1  lig      -0.073405
     15 C_0e         18.5614    1.1690   -9.2489 cn      1  lig       0.353491
     16 C_0f         20.5500    0.3803  -10.4464 co      1  lig      -0.083714
     17 S_0g         27.5166   -1.0965   -8.5685 s0      1  lig       0.930111
     18 O_0h         27.1757   -2.0254   -7.4877 o1      1  lig      -0.558722
     19 O_0i         28.5973   -1.4633   -9.4875 o2      1  lig      -0.512313
     20 C_0j         27.8897    0.6007   -7.8518 cq      1  lig       0.117099
     21 F_0k         27.7354    1.5229   -8.8032 f1      1  lig      -0.120300
     22 F_0l         27.0123    0.7944   -6.8835 f2      1  lig      -0.168989
     23 C_0m         24.8330    0.6084  -12.8132 cr      1  lig       0.223167
     24 N_0n         24.8420    1.1182  -13.8525 n0      1  lig      -0.390499
     25 N_0o         18.0078    2.0075   -8.6709 ng      1  lig      -0.426268
     26 H_0p         24.7836   -1.4731   -7.9183 h0      1  lig       0.214732
     27 H_0q         22.6985   -1.2282   -9.1371 h6      1  lig       0.160912
     28 H_0r         21.1987   -2.5965  -11.9433 h7      1  lig       0.164499
     29 H_0s         17.7864   -1.4317   -9.6991 h8      1  lig       0.191102
     30 H_0t         21.0075    1.3441  -10.2726 h9      1  lig       0.162904
     31 H_0u         28.8873    0.6401   -7.4156 hb      1  lig       0.204728
@<TRIPOS>BOND
     1     1     3    1
     2     2     3    2
     3     2     7    1
     4     2    23    1
     5     3     4    1
     6     4     5    2
     7     4    17    1
     8     5     6    1
     9     5    26    1
    10     6     7    2
    11     6    27    1
    12     7     8    1
    13     8     9    1
    14     9    10    2
    15     9    16    1
    16    10    11    1
    17    10    28    1
    18    11    12    1
    19    11    13    2
    20    13    14    1
    21    13    29    1
    22    14    15    1
    23    14    16    2
    24    15    25    3
    25    16    30    1
    26    17    18    2
    27    17    19    2
    28    17    20    1
    29    20    21    1
    30    20    22    1
    31    20    31    1
    32    23    24    3
