@<TRIPOS>MOLECULE
lig
  34   35 0 0 0
SMALL
NO_CHARGES


@<TRIPOS>ATOM
      1 C_00         27.3687    0.2213  -11.4876 c4      1  lig      -0.083898
      2 C_01         24.8311   -0.0329  -11.4879 c5      1  lig      -0.004946
      3 C_02         26.0513   -0.2060  -10.8090 c6      1  lig       0.007662
      4 C_03         26.0346   -0.7690   -9.5108 c7      1  lig       0.022756
      5 C_04         24.8065   -1.0848   -8.9114 c8      1  lig      -0.163356
      6 C_05         23.6126   -0.9312   -9.6030 c9      1  lig      -0.216065
      7 C_06         23.6048   -0.4328  -10.9121 cb      1  lig       0.203590
      8 O_07         22.4609   -0.3198  -11.6757 o0      1  lig      -0.210631
      9 C_08         21.2233   -0.5921  -11.1719 ci      1  lig       0.104858
     10 C_09         20.6530   -1.8418  -11.3921 cj      1  lig      -0.052881
     11 C_0a         19.3963   -2.1272  -10.8608 ck      1  lig      -0.219683
     12 C_0b         18.7071   -1.1442  -10.1414 cm      1  lig      -0.105203
     13 C_0c         19.2670    0.1229   -9.9620 cn      1  lig      -0.022253
     14 C_0d         18.5714    1.1621   -9.2281 co      1  lig       0.324552
     15 C_0e         20.5386    0.3929  -10.4709 cq      1  lig      -0.099130
     16 S_0f         27.5350   -1.0864   -8.5576 s0      1  lig       0.819465
     17 O_0g         27.1968   -2.0245   -7.4788 o1      1  lig      -0.516790
     18 O_0h         28.6157   -1.4679   -9.4665 o2      1  lig      -0.490087
     19 C_0i         27.9318    0.6142   -7.8020 cr      1  lig       0.055362
     20 F_0j         27.7568    1.5787   -8.6983 f0      1  lig      -0.109102
     21 F_0k         27.1155    0.8088   -6.7700 f1      1  lig      -0.144490
     22 C_0l         24.8004    0.6001  -12.7879 cs      1  lig       0.279661
     23 N_0m         24.7996    1.1238  -13.8126 n0      1  lig      -0.429623
     24 N_0n         18.0264    1.9917   -8.6305 ng      1  lig      -0.433939
     25 H_0o         28.1184    0.5861  -10.8006 h0      1  lig       0.067713
     26 H_0p         27.2481    1.0576  -12.1796 h6      1  lig       0.067713
     27 H_0q         27.7954   -0.6318  -12.0131 h7      1  lig       0.067713
     28 H_0r         24.7776   -1.4910   -7.9124 h8      1  lig       0.213982
     29 H_0s         22.6867   -1.2338   -9.1282 h9      1  lig       0.167490
     30 H_0t         21.1960   -2.5887  -11.9550 hb      1  lig       0.152442
     31 H_0u         18.9723   -3.1105  -11.0023 hd      1  lig       0.178659
     32 H_0v         17.7461   -1.3892   -9.7168 he      1  lig       0.171593
     33 H_0w         21.0038    1.3570  -10.3207 hf      1  lig       0.169779
     34 H_0x         28.9726    0.6087   -7.4924 hg      1  lig       0.227087
@<TRIPOS>BOND
     1     1     3    1
     2     1    25    1
     3     1    26    1
     4     1    27    1
     5     2     3    2
     6     2     7    1
     7     2    22    1
     8     3     4    1
     9     4     5    2
    10     4    16    1
    11     5     6    1
    12     5    28    1
    13     6     7    2
    14     6    29    1
    15     7     8    1
    16     8     9    1
    17     9    10    2
    18     9    15    1
    19    10    11    1
    20    10    30    1
    21    11    12    2
    22    11    31    1
    23    12    13    1
    24    12    32    1
    25    13    14    1
    26    13    15    2
    27    14    24    3
    28    15    33    1
    29    16    17    2
    30    16    18    2
    31    16    19    1
    32    19    20    1
    33    19    21    1
    34    19    34    1
    35    22    23    3
