@<TRIPOS>MOLECULE
lig
  37   39 0 0 0
SMALL
NO_CHARGES


@<TRIPOS>ATOM
      1 O_00         28.0017    1.1554  -10.7561 o0      1  lig      -0.598148
      2 C_01         27.1887    0.2094  -11.4461 c4      1  lig       0.107443
      3 C_02         26.5170    0.8013  -12.6963 c5      1  lig       0.090255
      4 C_03         25.1920    0.0739  -12.8350 c6      1  lig       0.059735
      5 C_04         24.8410   -0.2394  -11.4041 c7      1  lig       0.062713
      6 C_05         25.9976   -0.2708  -10.6132 c8      1  lig      -0.027358
      7 C_06         25.9018   -0.7012   -9.2751 c9      1  lig      -0.092494
      8 C_07         24.6420   -0.9417   -8.7237 cb      1  lig      -0.135229
      9 C_08         23.4967   -0.8363   -9.5019 ci      1  lig      -0.184041
     10 C_09         23.5906   -0.5071  -10.8564 cj      1  lig       0.123331
     11 O_0a         22.5177   -0.4372  -11.7191 o1      1  lig      -0.224847
     12 C_0b         21.2475   -0.6509  -11.2594 ck      1  lig       0.077554
     13 C_0c         20.6133   -1.8570  -11.5324 cm      1  lig      -0.088683
     14 C_0d         19.3358   -2.0915  -11.0377 cn      1  lig       0.173313
     15 F_0e         18.7005   -3.2450  -11.3168 f0      1  lig      -0.168999
     16 C_0f         18.6966   -1.1280  -10.2666 co      1  lig      -0.148229
     17 C_0g         19.3124    0.1012  -10.0242 cq      1  lig      -0.074452
     18 C_0h         18.6517    1.1490   -9.2706 cr      1  lig       0.369644
     19 C_0i         20.5958    0.3258  -10.5084 cs      1  lig      -0.114555
     20 S_0j         27.3000   -1.0274   -8.2059 s0      1  lig       1.034809
     21 O_0k         26.8468   -1.9518   -7.1631 o2      1  lig      -0.507102
     22 O_0l         28.4307   -1.3569   -9.0788 o3      1  lig      -0.537520
     23 F_0m         26.2251    2.0652  -12.4186 f1      1  lig      -0.184903
     24 N_0n         18.1329    1.9838   -8.6644 n0      1  lig      -0.446807
     25 F_0o         24.3006    0.8164  -13.4952 f2      1  lig      -0.189620
     26 N_0p         27.7092    0.4639   -7.4488 ng      1  lig      -0.866158
     27 H_0q         28.5314    1.6554  -11.3951 h0      1  lig       0.444961
     28 H_0r         27.7885   -0.6501  -11.7494 h6      1  lig       0.089517
     29 H_0s         27.1367    0.8148  -13.5962 h7      1  lig       0.130738
     30 H_0t         25.3024   -0.8318  -13.4322 h8      1  lig       0.111029
     31 H_0u         24.5459   -1.2350   -7.6890 h9      1  lig       0.182112
     32 H_0v         22.5403   -1.0632   -9.0641 hb      1  lig       0.189468
     33 H_0w         21.1114   -2.6124  -12.1160 hd      1  lig       0.151410
     34 H_0x         17.7386   -1.3762   -9.8563 he      1  lig       0.182219
     35 H_0y         21.0990    1.2456  -10.2714 hf      1  lig       0.175236
     36 H_0z         26.9316    0.7997   -6.8682 hg      1  lig       0.416829
     37 H_10         28.0360    1.1649   -8.1144 hh      1  lig       0.416829
@<TRIPOS>BOND
     1     1     2    1
     2     1    27    1
     3     2     3    1
     4     2     6    1
     5     2    28    1
     6     3     4    1
     7     3    23    1
     8     3    29    1
     9     4     5    1
    10     4    25    1
    11     4    30    1
    12     5     6    2
    13     5    10    1
    14     6     7    1
    15     7     8    2
    16     7    20    1
    17     8     9    1
    18     8    31    1
    19     9    10    2
    20     9    32    1
    21    10    11    1
    22    11    12    1
    23    12    13    2
    24    12    19    1
    25    13    14    1
    26    13    33    1
    27    14    15    1
    28    14    16    2
    29    16    17    1
    30    16    34    1
    31    17    18    1
    32    17    19    2
    33    18    24    3
    34    19    35    1
    35    20    21    2
    36    20    22    2
    37    20    26    1
    38    26    36    1
    39    26    37    1
