@<TRIPOS>MOLECULE
lig
  37   39 0 0 0
SMALL
NO_CHARGES


@<TRIPOS>ATOM
      1 O_00         27.6451    1.5396  -11.1263 o0      1  lig      -0.572238
      2 C_01         27.1573    0.3054  -11.6394 c4      1  lig       0.077288
      3 C_02         26.5145    0.3811  -13.0370 c5      1  lig       0.399913
      4 C_03         25.0296    0.6292  -12.8066 c6      1  lig       0.121656
      5 C_04         24.8033   -0.0375  -11.4699 c7      1  lig       0.007284
      6 C_05         26.0149   -0.2195  -10.7892 c8      1  lig      -0.034644
      7 C_06         26.0208   -0.7620   -9.4965 c9      1  lig      -0.087520
      8 C_07         24.8017   -1.0822   -8.8969 cb      1  lig      -0.121053
      9 C_08         23.6059   -0.9366   -9.5941 ci      1  lig      -0.167335
     10 C_09         23.6020   -0.4342  -10.9000 cj      1  lig       0.171445
     11 O_0a         22.4861   -0.2954  -11.6940 o1      1  lig      -0.259117
     12 C_0b         21.2424   -0.5775  -11.1970 ck      1  lig       0.157170
     13 C_0c         20.6737   -1.8297  -11.4038 cm      1  lig      -0.133836
     14 C_0d         19.4234   -2.1113  -10.8674 cn      1  lig       0.186982
     15 F_0e         18.8511   -3.3118  -11.0589 f0      1  lig      -0.165363
     16 C_0f         18.7462   -1.1423  -10.1427 co      1  lig      -0.133237
     17 C_0g         19.2860    0.1245   -9.9701 cq      1  lig      -0.108408
     18 C_0h         18.5760    1.1643   -9.2539 cr      1  lig       0.372070
     19 C_0i         20.5501    0.3903  -10.4736 cs      1  lig      -0.118347
     20 S_0j         27.5283   -1.0639   -8.5710 s0      1  lig       1.040089
     21 O_0k         27.2110   -1.9989   -7.4925 o2      1  lig      -0.524393
     22 O_0l         28.6000   -1.3708   -9.5178 o3      1  lig      -0.525012
     23 F_0m         27.0777    1.2809  -13.8505 f1      1  lig      -0.197952
     24 N_0n         18.0176    1.9927   -8.6784 n0      1  lig      -0.436102
     25 F_0o         24.8400    1.9615  -12.6525 f2      1  lig      -0.226954
     26 F_0p         26.6372   -0.7929  -13.6486 f3      1  lig      -0.240577
     27 N_0q         27.9360    0.4657   -7.8636 ng      1  lig      -0.832710
     28 H_0r         28.3611    1.8550  -11.6954 h0      1  lig       0.421965
     29 H_0s         27.9701   -0.4195  -11.7119 h6      1  lig       0.147041
     30 H_0t         24.3886    0.2707  -13.6271 h7      1  lig       0.117627
     31 H_0u         24.7736   -1.4789   -7.8939 h8      1  lig       0.184872
     32 H_0v         22.6914   -1.2459   -9.1138 h9      1  lig       0.156056
     33 H_0w         21.2074   -2.5951  -11.9425 hb      1  lig       0.166713
     34 H_0x         17.8099   -1.4198   -9.7083 hd      1  lig       0.184817
     35 H_0y         21.0016    1.3428  -10.2620 he      1  lig       0.180636
     36 H_0z         27.2694    0.7696   -7.1547 hf      1  lig       0.395587
     37 H_10         28.1746    1.1824   -8.5552 hg      1  lig       0.395587
@<TRIPOS>BOND
     1     1     2    1
     2     1    28    1
     3     2     3    1
     4     2     6    1
     5     2    29    1
     6     3     4    1
     7     3    23    1
     8     3    26    1
     9     4     5    1
    10     4    25    1
    11     4    30    1
    12     5     6    2
    13     5    10    1
    14     6     7    1
    15     7     8    2
    16     7    20    1
    17     8     9    1
    18     8    31    1
    19     9    10    2
    20     9    32    1
    21    10    11    1
    22    11    12    1
    23    12    13    2
    24    12    19    1
    25    13    14    1
    26    13    33    1
    27    14    15    1
    28    14    16    2
    29    16    17    1
    30    16    34    1
    31    17    18    1
    32    17    19    2
    33    18    24    3
    34    19    35    1
    35    20    21    2
    36    20    22    2
    37    20    27    1
    38    27    36    1
    39    27    37    1
