@<TRIPOS>MOLECULE
lig
  34   35 0 0 0
SMALL
NO_CHARGES


@<TRIPOS>ATOM
      1 C_00         27.3436    0.2181  -11.4886 c4      1  lig       0.076120
      2 C_01         24.8143   -0.0349  -11.4934 c5      1  lig       0.011711
      3 C_02         26.0359   -0.2157  -10.8128 c6      1  lig      -0.015494
      4 C_03         26.0279   -0.7798   -9.5188 c7      1  lig      -0.005115
      5 C_04         24.8027   -1.0842   -8.9107 c8      1  lig      -0.123496
      6 C_05         23.6077   -0.9361   -9.6066 c9      1  lig      -0.237334
      7 C_06         23.6033   -0.4369  -10.9127 cb      1  lig       0.233038
      8 O_07         22.4684   -0.3083  -11.6869 o0      1  lig      -0.205577
      9 C_08         21.2346   -0.5820  -11.1843 ci      1  lig       0.068771
     10 C_09         20.6688   -1.8348  -11.3989 cj      1  lig      -0.128991
     11 C_0a         19.4172   -2.1128  -10.8633 ck      1  lig       0.169530
     12 C_0b         18.7392   -1.1398  -10.1370 cm      1  lig      -0.063527
     13 C_0c         19.2891    0.1256   -9.9557 cn      1  lig      -0.112454
     14 Cl0d         18.4298    1.3495   -9.0945 a0      1  lig      -0.060944
     15 C_0e         20.5490    0.3955  -10.4695 co      1  lig      -0.023058
     16 S_0f         27.5361   -1.1002   -8.5609 s0      1  lig       0.851533
     17 O_0g         27.1915   -2.0165   -7.4763 o1      1  lig      -0.523770
     18 O_0h         28.6294   -1.4923   -9.4625 o2      1  lig      -0.512330
     19 C_0i         27.9209    0.6056   -7.8457 cq      1  lig       0.117746
     20 F_0j         27.8955    1.4798   -8.8507 f0      1  lig      -0.100302
     21 F_0k         26.9875    0.8733   -6.9434 f1      1  lig      -0.159596
     22 C_0l         24.7678    0.5910  -12.8118 cr      1  lig       0.274499
     23 N_0m         24.7397    1.0868  -13.8577 n0      1  lig      -0.428496
     24 O_0n         27.7506    1.4985  -11.0563 o3      1  lig      -0.631506
     25 F_0o         18.8551   -3.3220  -11.0512 f2      1  lig      -0.165343
     26 H_0p         28.1384   -0.4849  -11.3364 h0      1  lig       0.100828
     27 H_0q         27.2792    0.1852  -12.5694 h6      1  lig       0.100828
     28 H_0r         24.7669   -1.4583   -7.8977 h7      1  lig       0.205037
     29 H_0s         22.6880   -1.2361   -9.1232 h8      1  lig       0.172230
     30 H_0t         21.2037   -2.5885  -11.9555 h9      1  lig       0.169927
     31 H_0u         17.7939   -1.3817   -9.7021 hb      1  lig       0.156747
     32 H_0v         20.9933    1.3586  -10.2824 hd      1  lig       0.145958
     33 H_0w         28.8931    0.6288   -7.3559 he      1  lig       0.201772
     34 H_0x         28.4520    1.8114  -11.6736 hf      1  lig       0.441058
@<TRIPOS>BOND
     1     1     3    1
     2     1    24    1
     3     1    26    1
     4     1    27    1
     5     2     3    2
     6     2     7    1
     7     2    22    1
     8     3     4    1
     9     4     5    2
    10     4    16    1
    11     5     6    1
    12     5    28    1
    13     6     7    2
    14     6    29    1
    15     7     8    1
    16     8     9    1
    17     9    10    2
    18     9    15    1
    19    10    11    1
    20    10    30    1
    21    11    12    2
    22    11    25    1
    23    12    13    1
    24    12    31    1
    25    13    14    1
    26    13    15    2
    27    15    32    1
    28    16    17    2
    29    16    18    2
    30    16    19    1
    31    19    20    1
    32    19    21    1
    33    19    33    1
    34    22    23    3
    35    24    34    1
