@<TRIPOS>MOLECULE
lig
  33   34 0 0 0
SMALL
NO_CHARGES


@<TRIPOS>ATOM
      1 C_00         27.3160    0.2119  -11.5679 c4      1  lig       0.142326
      2 C_01         24.8220   -0.0323  -11.5026 c5      1  lig      -0.093504
      3 C_02         26.0361   -0.2219  -10.8310 c6      1  lig      -0.012839
      4 C_03         26.0397   -0.7735   -9.5325 c7      1  lig       0.021713
      5 C_04         24.8104   -1.0828   -8.9203 c8      1  lig      -0.169112
      6 C_05         23.6135   -0.9357   -9.6149 c9      1  lig      -0.247360
      7 C_06         23.6068   -0.4317  -10.9153 cb      1  lig       0.391025
      8 O_07         22.4766   -0.2993  -11.6901 o0      1  lig      -0.336287
      9 C_08         21.2357   -0.5744  -11.1818 ci      1  lig       0.150131
     10 C_09         20.6684   -1.8291  -11.3974 cj      1  lig      -0.139421
     11 C_0a         19.4181   -2.1063  -10.8643 ck      1  lig       0.149132
     12 C_0b         18.7365   -1.1464  -10.1377 cm      1  lig      -0.051082
     13 C_0c         19.2879    0.1264   -9.9486 cn      1  lig      -0.136367
     14 Cl0d         18.4235    1.3441   -9.0874 a0      1  lig      -0.062041
     15 C_0e         20.5478    0.3920  -10.4587 co      1  lig      -0.023089
     16 S_0f         27.5365   -1.0750   -8.5540 s0      1  lig       0.796140
     17 O_0g         27.1819   -2.0141   -7.4668 o1      1  lig      -0.514671
     18 O_0h         28.6395   -1.4886   -9.4342 o2      1  lig      -0.479588
     19 C_0i         27.9537    0.5878   -7.7603 cq      1  lig       0.115229
     20 F_0j         27.8618    1.5770   -8.6716 f0      1  lig      -0.138332
     21 F_0k         27.0945    0.8268   -6.7955 f1      1  lig      -0.154551
     22 Cl0l         24.7431    0.7028  -13.0772 a1      1  lig      -0.037908
     23 O_0m         27.6785    1.5088  -11.1977 o3      1  lig      -0.633874
     24 F_0n         18.8518   -3.3193  -11.0584 f2      1  lig      -0.163801
     25 H_0o         28.1256   -0.4939  -11.4275 h0      1  lig       0.077780
     26 H_0p         27.1998    0.1919  -12.6248 h6      1  lig       0.077780
     27 H_0q         24.7747   -1.4609   -7.9094 h7      1  lig       0.211503
     28 H_0r         22.6917   -1.2340   -9.1288 h8      1  lig       0.164570
     29 H_0s         21.2039   -2.5877  -11.9510 h9      1  lig       0.171626
     30 H_0t         17.7946   -1.3928   -9.6999 hb      1  lig       0.153118
     31 H_0u         20.9897    1.3596  -10.2596 hd      1  lig       0.136666
     32 H_0v         28.9741    0.5773   -7.4253 he      1  lig       0.215168
     33 H_0w         28.4604    1.8112  -11.7624 hf      1  lig       0.419920
@<TRIPOS>BOND
     1     1     3    1
     2     1    23    1
     3     1    25    1
     4     1    26    1
     5     2     3    2
     6     2     7    1
     7     2    22    1
     8     3     4    1
     9     4     5    2
    10     4    16    1
    11     5     6    1
    12     5    27    1
    13     6     7    2
    14     6    28    1
    15     7     8    1
    16     8     9    1
    17     9    10    2
    18     9    15    1
    19    10    11    1
    20    10    29    1
    21    11    12    2
    22    11    24    1
    23    12    13    1
    24    12    30    1
    25    13    14    1
    26    13    15    2
    27    15    31    1
    28    16    17    2
    29    16    18    2
    30    16    19    1
    31    19    20    1
    32    19    21    1
    33    19    32    1
    34    23    33    1
