@<TRIPOS>MOLECULE
lig
  34   35 0 0 0
SMALL
NO_CHARGES


@<TRIPOS>ATOM
      1 C_00         27.3181    0.2176  -11.5431 c4      1  lig       0.137362
      2 C_01         24.8173   -0.0332  -11.4982 c5      1  lig      -0.075862
      3 C_02         26.0316   -0.2203  -10.8241 c6      1  lig      -0.015207
      4 C_03         26.0328   -0.7764   -9.5277 c7      1  lig       0.030275
      5 C_04         24.8083   -1.0836   -8.9200 c8      1  lig      -0.181088
      6 C_05         23.6105   -0.9378   -9.6088 c9      1  lig      -0.220645
      7 C_06         23.6080   -0.4325  -10.9159 cb      1  lig       0.350361
      8 O_07         22.4782   -0.3027  -11.6931 o0      1  lig      -0.325855
      9 C_08         21.2413   -0.5786  -11.1883 ci      1  lig       0.150865
     10 C_09         20.6684   -1.8341  -11.3988 cj      1  lig      -0.103169
     11 C_0a         19.4219   -2.1085  -10.8663 ck      1  lig       0.149973
     12 C_0b         18.7432   -1.1382  -10.1421 cm      1  lig      -0.105899
     13 C_0c         19.2836    0.1206   -9.9615 cn      1  lig      -0.120598
     14 C_0d         18.5727    1.1637   -9.2506 co      1  lig       0.373185
     15 C_0e         20.5566    0.3950  -10.4703 cq      1  lig      -0.099097
     16 S_0f         27.5391   -1.0763   -8.5681 s0      1  lig       0.797747
     17 O_0g         27.1919   -2.0237   -7.4724 o1      1  lig      -0.512454
     18 O_0h         28.6309   -1.4696   -9.4479 o2      1  lig      -0.479248
     19 C_0i         27.9381    0.5939   -7.7835 cr      1  lig       0.114914
     20 F_0j         27.5845    1.5769   -8.6192 f0      1  lig      -0.136087
     21 F_0k         27.2323    0.7221   -6.6748 f1      1  lig      -0.153296
     22 Cl0l         24.7447    0.7035  -13.0743 a0      1  lig      -0.033323
     23 O_0m         27.7285    1.4980  -11.1377 o3      1  lig      -0.632426
     24 F_0n         18.8540   -3.3240  -11.0570 f2      1  lig      -0.160798
     25 N_0o         17.9992    1.9902   -8.6618 n0      1  lig      -0.437430
     26 H_0p         28.1192   -0.5047  -11.4029 h0      1  lig       0.079648
     27 H_0q         27.2079    0.2157  -12.6078 h6      1  lig       0.079648
     28 H_0r         24.7733   -1.4610   -7.9041 h7      1  lig       0.213026
     29 H_0s         22.6894   -1.2359   -9.1283 h8      1  lig       0.164556
     30 H_0t         21.2059   -2.5899  -11.9543 h9      1  lig       0.169710
     31 H_0u         17.7913   -1.4035   -9.7072 hb      1  lig       0.178558
     32 H_0v         21.0082    1.3546  -10.2735 hd      1  lig       0.168208
     33 H_0w         29.0034    0.6658   -7.6024 he      1  lig       0.215726
     34 H_0x         28.5462    1.7462  -11.6214 hf      1  lig       0.418720
@<TRIPOS>BOND
     1     1     3    1
     2     1    23    1
     3     1    26    1
     4     1    27    1
     5     2     3    2
     6     2     7    1
     7     2    22    1
     8     3     4    1
     9     4     5    2
    10     4    16    1
    11     5     6    1
    12     5    28    1
    13     6     7    2
    14     6    29    1
    15     7     8    1
    16     8     9    1
    17     9    10    2
    18     9    15    1
    19    10    11    1
    20    10    30    1
    21    11    12    2
    22    11    24    1
    23    12    13    1
    24    12    31    1
    25    13    14    1
    26    13    15    2
    27    14    25    3
    28    15    32    1
    29    16    17    2
    30    16    18    2
    31    16    19    1
    32    19    20    1
    33    19    21    1
    34    19    33    1
    35    23    34    1
