@<TRIPOS>MOLECULE
lig
  34   35 0 0 0
SMALL
NO_CHARGES


@<TRIPOS>ATOM
      1 C_00         27.3206    0.2092  -11.5444 c4      1  lig       0.141341
      2 C_01         24.8104   -0.0377  -11.5023 c5      1  lig      -0.088109
      3 C_02         26.0342   -0.2249  -10.8317 c6      1  lig      -0.013662
      4 C_03         26.0391   -0.7726   -9.5293 c7      1  lig       0.018104
      5 C_04         24.8129   -1.0870   -8.9213 c8      1  lig      -0.167299
      6 C_05         23.6118   -0.9391   -9.6083 c9      1  lig      -0.248181
      7 C_06         23.6108   -0.4248  -10.9220 cb      1  lig       0.385114
      8 O_07         22.4761   -0.3049  -11.6918 o0      1  lig      -0.359639
      9 C_08         21.2375   -0.5838  -11.1900 ci      1  lig       0.217466
     10 C_09         20.6642   -1.8394  -11.3980 cj      1  lig      -0.072616
     11 C_0a         19.4099   -2.1222  -10.8637 ck      1  lig      -0.231847
     12 C_0b         18.7315   -1.1370  -10.1413 cm      1  lig      -0.101740
     13 C_0c         19.2646    0.1136   -9.9710 cn      1  lig      -0.033890
     14 C_0d         18.5795    1.1649   -9.2431 co      1  lig       0.334260
     15 C_0e         20.5604    0.4002  -10.4797 cq      1  lig      -0.132107
     16 S_0f         27.5401   -1.0912   -8.5545 s0      1  lig       0.801614
     17 O_0g         27.1859   -2.0084   -7.4841 o1      1  lig      -0.516180
     18 O_0h         28.6206   -1.4509   -9.4586 o2      1  lig      -0.481221
     19 C_0i         27.9627    0.5938   -7.7916 cr      1  lig       0.111379
     20 F_0j         27.7984    1.5671   -8.6677 f0      1  lig      -0.137343
     21 F_0k         27.0861    0.7983   -6.7353 f1      1  lig      -0.152392
     22 Cl0l         24.7409    0.7017  -13.0762 a0      1  lig      -0.039084
     23 O_0m         27.6879    1.5242  -11.1857 o3      1  lig      -0.634095
     24 N_0n         18.0013    1.9953   -8.6849 n0      1  lig      -0.439903
     25 H_0o         28.1313   -0.4949  -11.3851 h0      1  lig       0.078288
     26 H_0p         27.2003    0.1946  -12.6299 h6      1  lig       0.078288
     27 H_0q         24.7742   -1.4735   -7.9133 h7      1  lig       0.212584
     28 H_0r         22.6888   -1.2338   -9.1280 h8      1  lig       0.162180
     29 H_0s         21.2029   -2.5876  -11.9606 h9      1  lig       0.151397
     30 H_0t         18.9769   -3.1014  -11.0060 hb      1  lig       0.180881
     31 H_0u         17.7565   -1.3858   -9.7173 hd      1  lig       0.168483
     32 H_0v         21.0066    1.3603  -10.3264 he      1  lig       0.171516
     33 H_0w         28.9730    0.5924   -7.4558 hf      1  lig       0.216010
     34 H_0x         28.4959    1.7705  -11.6621 hg      1  lig       0.420403
@<TRIPOS>BOND
     1     1     3    1
     2     1    23    1
     3     1    25    1
     4     1    26    1
     5     2     3    2
     6     2     7    1
     7     2    22    1
     8     3     4    1
     9     4     5    2
    10     4    16    1
    11     5     6    1
    12     5    27    1
    13     6     7    2
    14     6    28    1
    15     7     8    1
    16     8     9    1
    17     9    10    2
    18     9    15    1
    19    10    11    1
    20    10    29    1
    21    11    12    2
    22    11    30    1
    23    12    13    1
    24    12    31    1
    25    13    14    1
    26    13    15    2
    27    14    24    3
    28    15    32    1
    29    16    17    2
    30    16    18    2
    31    16    19    1
    32    19    20    1
    33    19    21    1
    34    19    33    1
    35    23    34    1
