@<TRIPOS>MOLECULE
lig
  33   34 0 0 0
SMALL
NO_CHARGES


@<TRIPOS>ATOM
      1 C_00         27.3390    0.1920  -11.4897 c4      1  lig      -0.197091
      2 C_01         24.8115   -0.0320  -11.4904 c5      1  lig       0.008412
      3 C_02         26.0318   -0.2159  -10.8097 c6      1  lig       0.013762
      4 C_03         26.0227   -0.7765   -9.5149 c7      1  lig      -0.061690
      5 C_04         24.7999   -1.0827   -8.9074 c8      1  lig      -0.134313
      6 C_05         23.6041   -0.9361   -9.6042 c9      1  lig      -0.219792
      7 C_06         23.6047   -0.4331  -10.9129 cb      1  lig       0.206648
      8 O_07         22.4696   -0.3076  -11.6887 o0      1  lig      -0.210065
      9 C_08         21.2371   -0.5820  -11.1896 ci      1  lig       0.070772
     10 C_09         20.6706   -1.8347  -11.4004 cj      1  lig      -0.116240
     11 C_0a         19.4200   -2.1133  -10.8631 ck      1  lig       0.158411
     12 C_0b         18.7409   -1.1381  -10.1380 cm      1  lig      -0.059323
     13 C_0c         19.2928    0.1262   -9.9592 cn      1  lig      -0.122623
     14 Cl0d         18.4329    1.3500   -9.0987 a0      1  lig      -0.062181
     15 C_0e         20.5510    0.3973  -10.4761 co      1  lig      -0.011181
     16 S_0f         27.5371   -1.0872   -8.5685 s0      1  lig       0.942305
     17 O_0g         27.2050   -2.0060   -7.4766 o1      1  lig      -0.555767
     18 C_0h         27.9344    0.6067   -7.8551 cq      1  lig      -0.341636
     19 C_0i         24.7666    0.6009  -12.8075 cr      1  lig       0.288143
     20 N_0j         24.7316    1.1052  -13.8442 n0      1  lig      -0.437565
     21 F_0k         18.8585   -3.3227  -11.0488 f0      1  lig      -0.164979
     22 O_0l         28.6335   -1.4776   -9.4489 o2      1  lig      -0.531752
     23 H_0m         28.1506   -0.4789  -11.3067 h0      1  lig       0.100202
     24 H_0n         27.6428    1.1924  -11.1938 h6      1  lig       0.100202
     25 H_0o         27.3039    0.1099  -12.5710 h7      1  lig       0.100202
     26 H_0p         24.7642   -1.4526   -7.8916 h8      1  lig       0.208114
     27 H_0q         22.6854   -1.2290   -9.1184 h9      1  lig       0.164993
     28 H_0r         21.2054   -2.5880  -11.9589 hb      1  lig       0.167511
     29 H_0s         17.7935   -1.3751   -9.7040 hd      1  lig       0.155818
     30 H_0t         20.9967    1.3605  -10.2973 he      1  lig       0.130096
     31 H_0u         28.8630    0.5151   -7.3041 hf      1  lig       0.136869
     32 H_0v         27.1256    0.9197   -7.1987 hg      1  lig       0.136869
     33 H_0w         28.0617    1.3257   -8.6644 hh      1  lig       0.136869
@<TRIPOS>BOND
     1     1     3    1
     2     1    23    1
     3     1    24    1
     4     1    25    1
     5     2     3    2
     6     2     7    1
     7     2    19    1
     8     3     4    1
     9     4     5    2
    10     4    16    1
    11     5     6    1
    12     5    26    1
    13     6     7    2
    14     6    27    1
    15     7     8    1
    16     8     9    1
    17     9    10    2
    18     9    15    1
    19    10    11    1
    20    10    28    1
    21    11    12    2
    22    11    21    1
    23    12    13    1
    24    12    29    1
    25    13    14    1
    26    13    15    2
    27    15    30    1
    28    16    17    2
    29    16    18    1
    30    16    22    2
    31    18    31    1
    32    18    32    1
    33    18    33    1
    34    19    20    3
