@<TRIPOS>MOLECULE
lig
  36   37 0 0 0
SMALL
NO_CHARGES


@<TRIPOS>ATOM
      1 C_00         27.3739    0.2021  -11.5257 c4      1  lig       0.137033
      2 C_01         24.8166   -0.0727  -11.5403 c5      1  lig      -0.037697
      3 C_02         26.0692   -0.2356  -10.8548 c6      1  lig       0.027040
      4 C_03         26.0425   -0.7765   -9.5491 c7      1  lig      -0.043074
      5 C_04         24.8317   -1.0884   -8.9403 c8      1  lig      -0.171184
      6 C_05         23.6267   -0.9347   -9.6164 c9      1  lig      -0.176743
      7 C_06         23.6229   -0.4433  -10.9232 cb      1  lig       0.162720
      8 O_07         22.4601   -0.2995  -11.6659 o0      1  lig      -0.240386
      9 C_08         21.2313   -0.5849  -11.1558 ci      1  lig       0.077017
     10 C_09         20.6536   -1.8315  -11.3749 cj      1  lig      -0.138770
     11 C_0a         19.3870   -2.1109  -10.8587 ck      1  lig       0.169413
     12 C_0b         18.7018   -1.1325  -10.1312 cm      1  lig      -0.055882
     13 C_0c         19.2617    0.1200   -9.9382 cn      1  lig      -0.128121
     14 Cl0d         18.4013    1.3488   -9.0779 a0      1  lig      -0.061807
     15 C_0e         20.5319    0.3986  -10.4453 co      1  lig      -0.008247
     16 S_0f         27.5413   -1.0868   -8.5786 s0      1  lig       0.902735
     17 O_0g         27.1521   -2.0097   -7.4995 o1      1  lig      -0.544142
     18 C_0h         27.9317    0.5862   -7.8045 cq      1  lig      -0.463932
     19 C_0i         24.7489    0.5863  -12.9072 cr      1  lig       0.307006
     20 F_0j         18.8205   -3.3078  -11.0704 f0      1  lig      -0.167182
     21 O_0k         28.6431   -1.4626   -9.4346 o2      1  lig      -0.538285
     22 O_0l         27.8838    1.4066  -10.9877 o3      1  lig      -0.630829
     23 F_0m         25.0512    1.8655  -12.6953 f1      1  lig      -0.222535
     24 F_0n         25.5439    0.0623  -13.8379 f2      1  lig      -0.245187
     25 H_0o         28.0990   -0.6021  -11.4607 h0      1  lig       0.093764
     26 H_0p         27.3066    0.3708  -12.5896 h6      1  lig       0.093764
     27 H_0q         24.7932   -1.4850   -7.9329 h7      1  lig       0.205422
     28 H_0r         22.7096   -1.2257   -9.1246 h8      1  lig       0.167478
     29 H_0s         21.1835   -2.5849  -11.9420 h9      1  lig       0.164037
     30 H_0t         17.7315   -1.3728   -9.7222 hb      1  lig       0.150771
     31 H_0u         20.9738    1.3666  -10.2947 hd      1  lig       0.124195
     32 H_0v         28.9058    0.4975   -7.3383 he      1  lig       0.183869
     33 H_0w         27.1560    0.8615   -7.0926 hf      1  lig       0.183869
     34 H_0x         27.9947    1.3445   -8.5786 hg      1  lig       0.183869
     35 H_0y         23.7601    0.5443  -13.3706 hh      1  lig       0.127752
     36 H_0z         28.5336    1.7915  -11.6096 hi      1  lig       0.412249
@<TRIPOS>BOND
     1     1     3    1
     2     1    22    1
     3     1    25    1
     4     1    26    1
     5     2     3    2
     6     2     7    1
     7     2    19    1
     8     3     4    1
     9     4     5    2
    10     4    16    1
    11     5     6    1
    12     5    27    1
    13     6     7    2
    14     6    28    1
    15     7     8    1
    16     8     9    1
    17     9    10    2
    18     9    15    1
    19    10    11    1
    20    10    29    1
    21    11    12    2
    22    11    20    1
    23    12    13    1
    24    12    30    1
    25    13    14    1
    26    13    15    2
    27    15    31    1
    28    16    17    2
    29    16    18    1
    30    16    21    2
    31    18    32    1
    32    18    33    1
    33    18    34    1
    34    19    23    1
    35    19    24    1
    36    19    35    1
    37    22    36    1
