@<TRIPOS>MOLECULE
lig
  38   40 0 0 0
SMALL
NO_CHARGES


@<TRIPOS>ATOM
      1 O_00         27.5460    1.5662  -11.2420 o0      1  lig      -0.613474
      2 C_01         27.1417    0.2930  -11.6885 c4      1  lig       0.171091
      3 C_02         26.5175    0.3923  -13.0762 c5      1  lig       0.049341
      4 C_03         25.0389    0.6092  -12.8376 c6      1  lig      -0.085141
      5 C_04         24.8019   -0.0696  -11.4987 c7      1  lig       0.046237
      6 C_05         26.0104   -0.2420  -10.8202 c8      1  lig      -0.049538
      7 C_06         26.0127   -0.7818   -9.5245 c9      1  lig      -0.001922
      8 C_07         24.7956   -1.0891   -8.9065 cb      1  lig      -0.232806
      9 C_08         23.6024   -0.9292   -9.5909 ci      1  lig      -0.149315
     10 C_09         23.5998   -0.4338  -10.9040 cj      1  lig       0.147779
     11 O_0a         22.4840   -0.2835  -11.6909 o1      1  lig      -0.213972
     12 C_0b         21.2455   -0.5724  -11.1935 ck      1  lig       0.060325
     13 C_0c         20.6764   -1.8302  -11.4013 cm      1  lig      -0.104059
     14 C_0d         19.4221   -2.1085  -10.8691 cn      1  lig       0.188501
     15 F_0e         18.8546   -3.3219  -11.0584 f0      1  lig      -0.168685
     16 C_0f         18.7416   -1.1432  -10.1420 co      1  lig      -0.140291
     17 C_0g         19.2911    0.1307   -9.9727 cq      1  lig      -0.101864
     18 C_0h         18.5770    1.1677   -9.2377 cr      1  lig       0.371224
     19 C_0i         20.5543    0.3924  -10.4659 cs      1  lig      -0.079962
     20 S_0j         27.5112   -1.0831   -8.6116 s0      1  lig       0.781081
     21 O_0k         27.2088   -2.0204   -7.5319 o2      1  lig      -0.472747
     22 O_0l         28.5710   -1.4325   -9.5653 o3      1  lig      -0.470542
     23 C_0m         27.9471    0.5775   -7.8607 ct      1  lig       0.311675
     24 F_0n         28.0885    1.5196   -8.8246 f1      1  lig      -0.103736
     25 F_0o         27.0049    0.9273   -6.9820 f2      1  lig      -0.116234
     26 N_0p         18.0078    1.9897   -8.6610 n0      1  lig      -0.435886
     27 F_0q         29.1051    0.3677   -7.2549 f3      1  lig      -0.088026
     28 H_0r         28.3249    1.8309  -11.7526 h0      1  lig       0.387302
     29 H_0s         27.9812   -0.4065  -11.7115 h6      1  lig       0.079904
     30 H_0t         26.9660    1.2243  -13.6577 h7      1  lig       0.016833
     31 H_0u         26.6903   -0.5132  -13.6228 h8      1  lig       0.016833
     32 H_0v         24.4319    0.1682  -13.6370 h9      1  lig       0.059581
     33 H_0w         24.7947    1.6584  -12.7761 hb      1  lig       0.059581
     34 H_0x         24.7771   -1.4712   -7.8943 hd      1  lig       0.204816
     35 H_0y         22.6821   -1.2262   -9.1101 he      1  lig       0.165691
     36 H_0z         21.2086   -2.5941  -11.9485 hf      1  lig       0.164860
     37 H_10         17.7930   -1.4100   -9.7040 hg      1  lig       0.185314
     38 H_11         21.0142    1.3550  -10.2678 hh      1  lig       0.160231
@<TRIPOS>BOND
     1     1     2    1
     2     1    28    1
     3     2     3    1
     4     2     6    1
     5     2    29    1
     6     3     4    1
     7     3    30    1
     8     3    31    1
     9     4     5    1
    10     4    32    1
    11     4    33    1
    12     5     6    2
    13     5    10    1
    14     6     7    1
    15     7     8    2
    16     7    20    1
    17     8     9    1
    18     8    34    1
    19     9    10    2
    20     9    35    1
    21    10    11    1
    22    11    12    1
    23    12    13    2
    24    12    19    1
    25    13    14    1
    26    13    36    1
    27    14    15    1
    28    14    16    2
    29    16    17    1
    30    16    37    1
    31    17    18    1
    32    17    19    2
    33    18    26    3
    34    19    38    1
    35    20    21    2
    36    20    22    2
    37    20    23    1
    38    23    24    1
    39    23    25    1
    40    23    27    1
