@<TRIPOS>MOLECULE
lig
  37   39 0 0 0
SMALL
NO_CHARGES


@<TRIPOS>ATOM
      1 O_00         27.6141    1.5314  -11.1645 o0      1  lig      -0.683559
      2 C_01         27.1537    0.2857  -11.6482 c4      1  lig       0.323218
      3 C_02         26.5383    0.4235  -13.0455 c5      1  lig      -0.143599
      4 C_03         25.0405    0.6014  -12.8272 c6      1  lig      -0.038018
      5 C_04         24.8079   -0.0680  -11.4919 c7      1  lig      -0.000137
      6 C_05         26.0128   -0.2402  -10.8022 c8      1  lig      -0.054556
      7 C_06         26.0160   -0.7777   -9.5061 c9      1  lig      -0.041886
      8 C_07         24.7980   -1.0852   -8.8991 cb      1  lig      -0.194179
      9 C_08         23.6016   -0.9305   -9.5931 ci      1  lig      -0.179926
     10 C_09         23.6009   -0.4247  -10.8990 cj      1  lig       0.194194
     11 O_0a         22.4839   -0.2869  -11.6927 o1      1  lig      -0.249241
     12 C_0b         21.2424   -0.5716  -11.1962 ck      1  lig       0.097251
     13 C_0c         20.6732   -1.8275  -11.4044 cm      1  lig      -0.170841
     14 C_0d         19.4230   -2.1091  -10.8655 cn      1  lig       0.185817
     15 F_0e         18.8559   -3.3155  -11.0537 f0      1  lig      -0.171025
     16 C_0f         18.7437   -1.1402  -10.1389 co      1  lig      -0.068105
     17 C_0g         19.2905    0.1241   -9.9552 cq      1  lig      -0.140898
     18 Cl0h         18.4313    1.3474   -9.0928 a0      1  lig      -0.062871
     19 C_0i         20.5489    0.3957  -10.4700 cr      1  lig       0.004409
     20 S_0j         27.5325   -1.0709   -8.5888 s0      1  lig       0.868153
     21 O_0k         27.2354   -2.0179   -7.5103 o2      1  lig      -0.514835
     22 O_0l         28.5854   -1.4059   -9.5449 o3      1  lig      -0.554729
     23 C_0m         27.9315    0.6133   -7.8461 cs      1  lig      -0.014874
     24 F_0n         27.0964    0.8246   -6.8331 f1      1  lig      -0.205315
     25 H_0o         28.3683    1.8194  -11.7071 h0      1  lig       0.414857
     26 H_0p         27.9719   -0.4315  -11.7022 h6      1  lig       0.033994
     27 H_0q         26.6895   -0.4969  -13.6161 h7      1  lig       0.079630
     28 H_0r         26.9723    1.2325  -13.6362 h8      1  lig       0.079630
     29 H_0s         24.8029    1.6660  -12.7801 h9      1  lig       0.041678
     30 H_0t         24.4290    0.1742  -13.6223 hb      1  lig       0.041678
     31 H_0u         24.7779   -1.4665   -7.8901 hd      1  lig       0.204458
     32 H_0v         22.6843   -1.2383   -9.1176 he      1  lig       0.163250
     33 H_0w         21.2051   -2.5890  -11.9516 hf      1  lig       0.172637
     34 H_0x         17.8031   -1.3878   -9.7030 hg      1  lig       0.153395
     35 H_0y         20.9911    1.3546  -10.2655 hh      1  lig       0.126789
     36 H_0z         28.9528    0.5965   -7.4752 hi      1  lig       0.151778
     37 H_10         27.8095    1.3876   -8.6011 hj      1  lig       0.151778
@<TRIPOS>BOND
     1     1     2    1
     2     1    25    1
     3     2     3    1
     4     2     6    1
     5     2    26    1
     6     3     4    1
     7     3    27    1
     8     3    28    1
     9     4     5    1
    10     4    29    1
    11     4    30    1
    12     5     6    2
    13     5    10    1
    14     6     7    1
    15     7     8    2
    16     7    20    1
    17     8     9    1
    18     8    31    1
    19     9    10    2
    20     9    32    1
    21    10    11    1
    22    11    12    1
    23    12    13    2
    24    12    19    1
    25    13    14    1
    26    13    33    1
    27    14    15    1
    28    14    16    2
    29    16    17    1
    30    16    34    1
    31    17    18    1
    32    17    19    2
    33    19    35    1
    34    20    21    2
    35    20    22    2
    36    20    23    1
    37    23    24    1
    38    23    36    1
    39    23    37    1
