@<TRIPOS>MOLECULE
lig
  32   34 0 0 0
SMALL
NO_CHARGES


@<TRIPOS>ATOM
      1 O_00         27.6053    1.5453  -11.1389 o0      1  lig      -0.572720
      2 C_01         27.1460    0.3053  -11.6573 c4      1  lig       0.157259
      3 C_02         26.5192    0.3788  -13.0582 c5      1  lig       0.339480
      4 C_03         25.0264    0.5970  -12.8539 c6      1  lig      -0.058363
      5 C_04         24.7883   -0.0701  -11.5149 c7      1  lig      -0.000032
      6 C_05         25.9960   -0.2256  -10.8222 c8      1  lig      -0.061191
      7 C_06         26.0002   -0.7558   -9.5268 c9      1  lig       0.019891
      8 C_07         24.7931   -1.0825   -8.9108 cb      1  lig      -0.201134
      9 C_08         23.5922   -0.9249   -9.5980 ci      1  lig      -0.197657
     10 C_09         23.5873   -0.4230  -10.9073 cj      1  lig       0.217355
     11 O_0a         22.4670   -0.2684  -11.6890 o1      1  lig      -0.241042
     12 C_0b         21.2316   -0.5645  -11.1870 ck      1  lig       0.045770
     13 C_0c         20.5410    0.3964  -10.4526 cm      1  lig      -0.108703
     14 C_0d         19.2824    0.1162   -9.9401 cn      1  lig       0.119138
     15 F_0e         18.6064    1.0626   -9.2523 f0      1  lig      -0.154246
     16 C_0f         18.7355   -1.1452  -10.1366 co      1  lig      -0.151053
     17 C_0g         19.4128   -2.1057  -10.8754 cq      1  lig       0.142297
     18 F_0h         18.8450   -3.3093  -11.0745 f1      1  lig      -0.156561
     19 C_0i         20.6682   -1.8203  -11.4037 cr      1  lig      -0.119990
     20 F_0j         27.0666    1.3156  -13.8300 f2      1  lig      -0.211987
     21 F_0k         26.6710   -0.8011  -13.6632 f3      1  lig      -0.232580
     22 C_0l         27.2485   -0.9801   -8.8196 cs      1  lig       0.340042
     23 N_0m         28.2434   -1.1601   -8.2628 n0      1  lig      -0.450912
     24 H_0n         28.3557    1.8615  -11.6733 h0      1  lig       0.401839
     25 H_0o         27.9699   -0.4119  -11.6750 h6      1  lig       0.103149
     26 H_0p         24.7968    1.6599  -12.7799 h7      1  lig       0.082253
     27 H_0q         24.4187    0.1942  -13.6651 h8      1  lig       0.082253
     28 H_0r         24.7714   -1.4809   -7.9067 h9      1  lig       0.198603
     29 H_0s         22.6829   -1.2318   -9.1072 hb      1  lig       0.167626
     30 H_0t         20.9775    1.3594  -10.2558 hd      1  lig       0.166206
     31 H_0u         17.7995   -1.4050   -9.6932 he      1  lig       0.173781
     32 H_0v         21.2054   -2.5816  -11.9461 hf      1  lig       0.161229
@<TRIPOS>BOND
     1     1     2    1
     2     1    24    1
     3     2     3    1
     4     2     6    1
     5     2    25    1
     6     3     4    1
     7     3    20    1
     8     3    21    1
     9     4     5    1
    10     4    26    1
    11     4    27    1
    12     5     6    2
    13     5    10    1
    14     6     7    1
    15     7     8    2
    16     7    22    1
    17     8     9    1
    18     8    28    1
    19     9    10    2
    20     9    29    1
    21    10    11    1
    22    11    12    1
    23    12    13    2
    24    12    19    1
    25    13    14    1
    26    13    30    1
    27    14    15    1
    28    14    16    2
    29    16    17    1
    30    16    31    1
    31    17    18    1
    32    17    19    2
    33    19    32    1
    34    22    23    3
