@<TRIPOS>MOLECULE
lig
  40   42 0 0 0
SMALL
NO_CHARGES


@<TRIPOS>ATOM
      1 O_00         27.8986    1.1686  -10.8159 o0      1  lig      -0.661543
      2 C_01         27.3063    0.0821  -11.4967 c4      1  lig       0.241235
      3 C_02         26.7543    0.5309  -12.8435 c5      1  lig      -0.043615
      4 C_03         25.2972    0.0902  -12.9073 c6      1  lig       0.056441
      5 C_04         24.9356   -0.2719  -11.4777 c7      1  lig       0.005421
      6 C_05         26.1058   -0.4336  -10.7289 c8      1  lig      -0.027878
      7 C_06         26.0415   -0.9623   -9.4361 c9      1  lig       0.018475
      8 C_07         24.8001   -1.2235   -8.8639 cb      1  lig      -0.180819
      9 C_08         23.6290   -0.9777   -9.5693 ci      1  lig      -0.160416
     10 C_09         23.6838   -0.5129  -10.8898 cj      1  lig       0.089697
     11 O_0a         22.5621   -0.2401  -11.6444 o1      1  lig      -0.196978
     12 C_0b         21.3109   -0.5861  -11.1952 ck      1  lig       0.051744
     13 C_0c         20.8154   -1.8606  -11.4562 cm      1  lig      -0.114315
     14 C_0d         19.5537   -2.2243  -11.0029 cn      1  lig       0.176224
     15 F_0e         19.0721   -3.4508  -11.2863 f0      1  lig      -0.172500
     16 C_0f         18.7894   -1.3253  -10.2644 co      1  lig      -0.073473
     17 C_0g         19.2720   -0.0424  -10.0060 cq      1  lig      -0.115944
     18 Cl0h         18.3130    1.0837   -9.1138 a0      1  lig      -0.065527
     19 C_0i         20.5312    0.3270  -10.4759 cr      1  lig      -0.039344
     20 S_0j         27.5140   -1.2559   -8.4651 s0      1  lig       0.764395
     21 O_0k         27.1933   -2.2794   -7.4639 o2      1  lig      -0.495781
     22 O_0l         28.6255   -1.4828   -9.3950 o3      1  lig      -0.494224
     23 C_0m         27.7388    0.4232   -7.6234 cs      1  lig       0.142409
     24 F_0n         27.7231    1.3759   -8.5583 f1      1  lig      -0.127560
     25 F_0o         26.7479    0.5754   -6.7503 f2      1  lig      -0.157365
     26 C_0p         24.4377    1.1669  -13.5390 ct      1  lig      -0.143075
     27 H_0q         28.6114    1.5312  -11.3627 h0      1  lig       0.415907
     28 H_0r         28.0280   -0.7165  -11.6685 h6      1  lig       0.036315
     29 H_0s         26.8240    1.6206  -12.9191 h7      1  lig       0.050479
     30 H_0t         27.3250    0.1428  -13.6861 h8      1  lig       0.050479
     31 H_0u         25.2257   -0.8173  -13.5111 h9      1  lig       0.025736
     32 H_0v         24.7387   -1.6083   -7.8634 hb      1  lig       0.188011
     33 H_0w         22.6833   -1.1799   -9.0869 hd      1  lig       0.173959
     34 H_0x         21.4160   -2.5775  -11.9946 he      1  lig       0.153434
     35 H_0y         17.8284   -1.6333   -9.8958 hf      1  lig       0.152265
     36 H_0z         20.9029    1.3142  -10.2637 hg      1  lig       0.147412
     37 H_10         28.6860    0.4534   -7.0836 hh      1  lig       0.196792
     38 H_11         23.4853    0.7664  -13.8251 hi      1  lig       0.044509
     39 H_12         24.8788    1.5661  -14.4435 hj      1  lig       0.044509
     40 H_13         24.2853    1.9768  -12.8310 hk      1  lig       0.044509
@<TRIPOS>BOND
     1     1     2    1
     2     1    27    1
     3     2     3    1
     4     2     6    1
     5     2    28    1
     6     3     4    1
     7     3    29    1
     8     3    30    1
     9     4     5    1
    10     4    26    1
    11     4    31    1
    12     5     6    2
    13     5    10    1
    14     6     7    1
    15     7     8    2
    16     7    20    1
    17     8     9    1
    18     8    32    1
    19     9    10    2
    20     9    33    1
    21    10    11    1
    22    11    12    1
    23    12    13    2
    24    12    19    1
    25    13    14    1
    26    13    34    1
    27    14    15    1
    28    14    16    2
    29    16    17    1
    30    16    35    1
    31    17    18    1
    32    17    19    2
    33    19    36    1
    34    20    21    2
    35    20    22    2
    36    20    23    1
    37    23    24    1
    38    23    25    1
    39    23    37    1
    40    26    38    1
    41    26    39    1
    42    26    40    1
