@<TRIPOS>MOLECULE
lig
  40   42 0 0 0
SMALL
NO_CHARGES


@<TRIPOS>ATOM
      1 O_00         27.5013   -1.6332  -11.4637 o0      1  lig      -0.667835
      2 C_01         27.1568   -0.2839  -11.3999 c4      1  lig       0.183942
      3 C_02         26.6886    0.3329  -12.7025 c5      1  lig      -0.012629
      4 C_03         25.1969    0.0379  -12.7689 c6      1  lig       0.053656
      5 C_04         24.8105   -0.1505  -11.3108 c7      1  lig       0.034559
      6 C_05         25.9592   -0.2656  -10.5261 c8      1  lig      -0.059333
      7 C_06         25.8971   -0.6307   -9.1854 c9      1  lig       0.032546
      8 C_07         24.6408   -0.8548   -8.6218 cb      1  lig      -0.200447
      9 C_08         23.4840   -0.6750   -9.3761 ci      1  lig      -0.144654
     10 C_09         23.5563   -0.3395  -10.7327 cj      1  lig       0.110540
     11 O_0a         22.4601   -0.1883  -11.5559 o1      1  lig      -0.212277
     12 C_0b         21.2105   -0.5483  -11.1220 ck      1  lig       0.050991
     13 C_0c         20.7413   -1.8392  -11.3555 cm      1  lig      -0.110877
     14 C_0d         19.4788   -2.2099  -10.9043 cn      1  lig       0.169672
     15 F_0e         19.0081   -3.4457  -11.1600 f0      1  lig      -0.170363
     16 C_0f         18.6981   -1.3070  -10.1890 co      1  lig      -0.078544
     17 C_0g         19.1613   -0.0124   -9.9545 cq      1  lig      -0.107649
     18 Cl0h         18.2132    1.1216   -9.0640 a0      1  lig      -0.068013
     19 C_0i         20.4100    0.3677  -10.4377 cr      1  lig      -0.024093
     20 S_0j         27.3936   -0.9854   -8.2325 s0      1  lig       0.826432
     21 O_0k         26.9547   -1.8191   -7.1140 o2      1  lig      -0.503319
     22 O_0l         28.4729   -1.4925   -9.0809 o3      1  lig      -0.520632
     23 C_0m         28.0024    0.7179   -7.6900 cs      1  lig       0.069394
     24 F_0n         28.1774    1.4774   -8.7679 f1      1  lig      -0.124450
     25 F_0o         27.1642    1.2786   -6.8272 f2      1  lig      -0.145282
     26 C_0p         24.4433    1.1364  -13.4936 ct      1  lig      -0.178330
     27 H_0q         26.7744   -2.1461  -11.8362 h0      1  lig       0.450851
     28 H_0r         27.9807    0.3158  -11.0121 h6      1  lig       0.039009
     29 H_0s         26.8561    1.4115  -12.6450 h7      1  lig       0.037993
     30 H_0t         27.2249   -0.0134  -13.5849 h8      1  lig       0.037993
     31 H_0u         25.0496   -0.9005  -13.3053 h9      1  lig       0.073171
     32 H_0v         24.5542   -1.2332   -7.6122 hb      1  lig       0.191126
     33 H_0w         22.5271   -0.8333   -8.9186 hd      1  lig       0.168221
     34 H_0x         21.3595   -2.5583  -11.8687 he      1  lig       0.154507
     35 H_0y         17.7450   -1.6335   -9.8144 hf      1  lig       0.153059
     36 H_0z         20.7599    1.3719  -10.2636 hg      1  lig       0.124751
     37 H_10         28.9671    0.5600   -7.2227 hh      1  lig       0.225170
     38 H_11         23.4853    0.7668  -13.8302 hi      1  lig       0.047048
     39 H_12         24.9806    1.4869  -14.3669 hj      1  lig       0.047048
     40 H_13         24.2853    1.9691  -12.8189 hk      1  lig       0.047048
@<TRIPOS>BOND
     1     1     2    1
     2     1    27    1
     3     2     3    1
     4     2     6    1
     5     2    28    1
     6     3     4    1
     7     3    29    1
     8     3    30    1
     9     4     5    1
    10     4    26    1
    11     4    31    1
    12     5     6    2
    13     5    10    1
    14     6     7    1
    15     7     8    2
    16     7    20    1
    17     8     9    1
    18     8    32    1
    19     9    10    2
    20     9    33    1
    21    10    11    1
    22    11    12    1
    23    12    13    2
    24    12    19    1
    25    13    14    1
    26    13    34    1
    27    14    15    1
    28    14    16    2
    29    16    17    1
    30    16    35    1
    31    17    18    1
    32    17    19    2
    33    19    36    1
    34    20    21    2
    35    20    22    2
    36    20    23    1
    37    23    24    1
    38    23    25    1
    39    23    37    1
    40    26    38    1
    41    26    39    1
    42    26    40    1
