@<TRIPOS>MOLECULE
lig
  33   35 0 0 0
SMALL
NO_CHARGES


@<TRIPOS>ATOM
      1 C_00         27.1519    0.2532  -11.6800 c4      1  lig       0.094164
      2 O_01         26.5130    0.7426  -12.8412 o0      1  lig      -0.426754
      3 C_02         25.1762    0.6269  -12.7600 c5      1  lig       0.713224
      4 C_03         24.8499   -0.0311  -11.4770 c6      1  lig      -0.025215
      5 C_04         26.0340   -0.2215  -10.7968 c7      1  lig      -0.016142
      6 C_05         26.0242   -0.7693   -9.5082 c8      1  lig      -0.024484
      7 C_06         24.8040   -1.0944   -8.9127 c9      1  lig      -0.142296
      8 C_07         23.6145   -0.9327   -9.6143 cb      1  lig      -0.173972
      9 C_08         23.6192   -0.4161  -10.9195 ci      1  lig       0.157325
     10 O_09         22.4850   -0.2560  -11.6856 o1      1  lig      -0.214538
     11 C_0a         21.2418   -0.5594  -11.1731 cj      1  lig       0.088574
     12 C_0b         20.6764   -1.8121  -11.3952 ck      1  lig      -0.119948
     13 C_0c         19.4207   -2.1058  -10.8708 cm      1  lig       0.149735
     14 F_0d         18.8527   -3.3055  -11.0912 f0      1  lig      -0.164569
     15 C_0e         18.7389   -1.1582  -10.1193 cn      1  lig      -0.045397
     16 C_0f         19.2846    0.1056   -9.9175 co      1  lig      -0.125156
     17 Cl0g         18.4076    1.3130   -9.0524 a0      1  lig      -0.062451
     18 C_0h         20.5427    0.3982  -10.4386 cq      1  lig      -0.019099
     19 S_0i         27.5368   -1.0620   -8.6071 s0      1  lig       0.858602
     20 O_0j         27.2401   -2.0061   -7.5205 o2      1  lig      -0.509948
     21 O_0k         28.5629   -1.4048   -9.5884 o3      1  lig      -0.525797
     22 C_0l         27.9655    0.6177   -7.8733 cr      1  lig       0.103566
     23 F_0m         27.8644    1.5436   -8.8222 f1      1  lig      -0.136404
     24 F_0n         27.1261    0.8718   -6.8704 f2      1  lig      -0.152589
     25 O_0o         24.4444    1.0443  -13.6419 o4      1  lig      -0.540063
     26 H_0p         27.7351    1.0614  -11.2340 h0      1  lig       0.111106
     27 H_0q         27.8490   -0.5450  -11.9454 h6      1  lig       0.111106
     28 H_0r         24.7810   -1.4921   -7.9071 h7      1  lig       0.197371
     29 H_0s         22.6871   -1.2236   -9.1360 h8      1  lig       0.153358
     30 H_0t         21.2083   -2.5725  -11.9463 h9      1  lig       0.174523
     31 H_0u         17.8032   -1.4332   -9.6854 hb      1  lig       0.152931
     32 H_0v         20.9779    1.3673  -10.2624 hd      1  lig       0.144943
     33 H_0w         28.9894    0.5501   -7.5409 he      1  lig       0.214294
@<TRIPOS>BOND
     1     1     2    1
     2     1     5    1
     3     1    26    1
     4     1    27    1
     5     2     3    1
     6     3     4    1
     7     3    25    2
     8     4     5    2
     9     4     9    1
    10     5     6    1
    11     6     7    2
    12     6    19    1
    13     7     8    1
    14     7    28    1
    15     8     9    2
    16     8    29    1
    17     9    10    1
    18    10    11    1
    19    11    12    2
    20    11    18    1
    21    12    13    1
    22    12    30    1
    23    13    14    1
    24    13    15    2
    25    15    16    1
    26    15    31    1
    27    16    17    1
    28    16    18    2
    29    18    32    1
    30    19    20    2
    31    19    21    2
    32    19    22    1
    33    22    23    1
    34    22    24    1
    35    22    33    1
