@<TRIPOS>MOLECULE
lig
  36   39 0 0 0
SMALL
NO_CHARGES


@<TRIPOS>ATOM
      1 N_00        -31.0114   15.5779   14.7787 n0      1  lig      -0.223245
      2 N_01        -30.2642   16.6119   14.2120 ng      1  lig       0.222271
      3 C_02        -30.7949   17.7703   14.7797 c4      1  lig      -0.003743
      4 C_03        -31.8278   17.3381   15.6333 c5      1  lig       0.160732
      5 N_04        -31.9121   15.9810   15.6453 nr      1  lig      -0.280907
      6 C_05        -32.5974   18.2935   16.3108 c6      1  lig       0.176377
      7 N_06        -32.4238   19.6375   16.1766 nw      1  lig      -0.566850
      8 C_07        -31.4342   20.0219   15.3651 c7      1  lig       0.406533
      9 C_08        -30.5611   19.1684   14.6421 c8      1  lig      -0.064087
     10 C_09        -29.6471   19.9921   13.9126 c9      1  lig      -0.313984
     11 C_0a        -30.0090   21.3003   14.1892 cb      1  lig      -0.161340
     12 N_0b        -31.0825   21.3143   15.0499 nA      1  lig      -0.290143
     13 C_0c        -29.1864   16.4388   13.2287 ci      1  lig       0.041873
     14 C_0d        -29.4869   17.1415   11.8818 cj      1  lig       0.098474
     15 C_0e        -28.3050   17.0077   10.8956 ck      1  lig      -0.215083
     16 C_0f        -26.9737   17.4472   11.5305 cm      1  lig       0.230794
     17 C_0g        -26.6890   16.6909   12.8364 cn      1  lig      -0.215410
     18 C_0h        -27.8410   16.8767   13.8355 co      1  lig       0.098395
     19 N_0i        -25.7901   17.2436   10.5555 nB      1  lig      -0.779266
     20 H_0j        -33.3822   17.9844   16.9814 h0      1  lig       0.135934
     21 H_0k        -28.8245   19.7146   13.2674 h6      1  lig       0.181070
     22 H_0l        -29.5952   22.2341   13.8378 h7      1  lig       0.218223
     23 H_0m        -31.5125   22.1665   15.3882 h8      1  lig       0.348249
     24 H_0n        -29.0809   15.3811   12.9913 h9      1  lig       0.029142
     25 H_0o        -29.7209   18.1936   12.0148 hb      1  lig       0.002121
     26 H_0p        -30.3791   16.7023   11.4322 hd      1  lig       0.002120
     27 H_0q        -28.5200   17.5955   10.0017 he      1  lig       0.099535
     28 H_0r        -28.2356   15.9719   10.5623 hf      1  lig       0.099535
     29 H_0s        -27.0203   18.5053   11.7277 hg      1  lig       0.088788
     30 H_0t        -25.7615   17.0248   13.2962 hh      1  lig       0.099614
     31 H_0u        -26.5552   15.6277   12.6328 hi      1  lig       0.099614
     32 H_0v        -27.6330   16.2931   14.7332 hj      1  lig       0.002208
     33 H_0w        -27.8790   17.9153   14.1539 hk      1  lig       0.002208
     34 H_0x        -25.2456   16.4262   10.7861 hl      1  lig       0.423416
     35 H_0y        -26.0747   17.1682    9.5870 hm      1  lig       0.423416
     36 H_0z        -25.1643   18.0430   10.5696 hq      1  lig       0.423416
@<TRIPOS>BOND
     1     1     2    1
     2     1     5    2
     3     2     3    1
     4     2    13    1
     5     3     4    2
     6     3     9    1
     7     4     5    1
     8     4     6    1
     9     6     7    2
    10     6    20    1
    11     7     8    1
    12     8     9    2
    13     8    12    1
    14     9    10    1
    15    10    11    2
    16    10    21    1
    17    11    12    1
    18    11    22    1
    19    12    23    1
    20    13    14    1
    21    13    18    1
    22    13    24    1
    23    14    15    1
    24    14    25    1
    25    14    26    1
    26    15    16    1
    27    15    27    1
    28    15    28    1
    29    16    17    1
    30    16    19    1
    31    16    29    1
    32    17    18    1
    33    17    30    1
    34    17    31    1
    35    18    32    1
    36    18    33    1
    37    19    34    1
    38    19    35    1
    39    19    36    1
