@<TRIPOS>MOLECULE
lig
  34   37 0 0 0
SMALL
NO_CHARGES


@<TRIPOS>ATOM
      1 N_00        -31.0114   15.5779   14.7787 n0      1  lig      -0.236132
      2 N_01        -30.2633   16.6114   14.2109 ng      1  lig       0.282828
      3 C_02        -30.7949   17.7703   14.7797 c4      1  lig      -0.006125
      4 C_03        -31.8278   17.3381   15.6333 c5      1  lig       0.166026
      5 N_04        -31.9121   15.9810   15.6453 nr      1  lig      -0.321563
      6 C_05        -32.5974   18.2935   16.3108 c6      1  lig       0.162196
      7 N_06        -32.4238   19.6375   16.1766 nw      1  lig      -0.588889
      8 C_07        -31.4342   20.0219   15.3651 c7      1  lig       0.415312
      9 C_08        -30.5611   19.1684   14.6421 c8      1  lig      -0.075298
     10 C_09        -29.6509   19.9910   13.9114 c9      1  lig      -0.300343
     11 C_0a        -30.0090   21.3003   14.1892 cb      1  lig      -0.173963
     12 N_0b        -31.0825   21.3143   15.0499 nA      1  lig      -0.309214
     13 C_0c        -29.1869   16.4393   13.2292 ci      1  lig       0.045475
     14 C_0d        -29.4868   17.1411   11.8818 cj      1  lig       0.092844
     15 C_0e        -28.3054   17.0076   10.8956 ck      1  lig      -0.180682
     16 C_0f        -26.9651   17.4346   11.5141 cm      1  lig       0.277441
     17 C_0g        -26.6893   16.6908   12.8365 cn      1  lig      -0.110938
     18 C_0h        -27.8411   16.8764   13.8354 co      1  lig       0.034102
     19 O_0i        -25.9339   17.1523   10.5942 o0      1  lig      -0.701264
     20 H_0j        -33.3822   17.9844   16.9814 h0      1  lig       0.123922
     21 H_0k        -28.8230   19.7157   13.2686 h6      1  lig       0.205180
     22 H_0l        -29.5952   22.2341   13.8378 h7      1  lig       0.208444
     23 H_0m        -31.5125   22.1665   15.3882 h8      1  lig       0.339425
     24 H_0n        -29.0811   15.3810   12.9915 h9      1  lig       0.025683
     25 H_0o        -29.7209   18.1936   12.0149 hb      1  lig      -0.023030
     26 H_0p        -30.3791   16.7023   11.4322 hd      1  lig      -0.023030
     27 H_0q        -28.5199   17.5955   10.0017 he      1  lig       0.062876
     28 H_0r        -28.2355   15.9720   10.5623 hf      1  lig       0.062876
     29 H_0s        -27.0199   18.5050   11.7274 hg      1  lig       0.000989
     30 H_0t        -25.7613   17.0249   13.2960 hh      1  lig       0.075565
     31 H_0u        -26.5552   15.6278   12.6327 hi      1  lig       0.075565
     32 H_0v        -27.6330   16.2931   14.7332 hj      1  lig      -0.013510
     33 H_0w        -27.8790   17.9153   14.1539 hk      1  lig      -0.013510
     34 H_0x        -25.7958   17.9177   10.0079 hl      1  lig       0.420742
@<TRIPOS>BOND
     1     1     2    1
     2     1     5    2
     3     2     3    1
     4     2    13    1
     5     3     4    2
     6     3     9    1
     7     4     5    1
     8     4     6    1
     9     6     7    2
    10     6    20    1
    11     7     8    1
    12     8     9    2
    13     8    12    1
    14     9    10    1
    15    10    11    2
    16    10    21    1
    17    11    12    1
    18    11    22    1
    19    12    23    1
    20    13    14    1
    21    13    18    1
    22    13    24    1
    23    14    15    1
    24    14    25    1
    25    14    26    1
    26    15    16    1
    27    15    27    1
    28    15    28    1
    29    16    17    1
    30    16    19    1
    31    16    29    1
    32    17    18    1
    33    17    30    1
    34    17    31    1
    35    18    32    1
    36    18    33    1
    37    19    34    1
