@<TRIPOS>MOLECULE
lig
  43   46 0 0 0
SMALL
NO_CHARGES


@<TRIPOS>ATOM
      1 N_00        -31.0114   15.5779   14.7787 n0      1  lig      -0.220052
      2 N_01        -30.2648   16.6121   14.2126 ng      1  lig       0.213020
      3 C_02        -30.7949   17.7703   14.7797 c4      1  lig      -0.007445
      4 C_03        -31.8278   17.3381   15.6333 c5      1  lig       0.167463
      5 N_04        -31.9121   15.9810   15.6453 nr      1  lig      -0.284027
      6 C_05        -32.5974   18.2935   16.3108 c6      1  lig       0.172631
      7 N_06        -32.4238   19.6375   16.1766 nw      1  lig      -0.568954
      8 C_07        -31.4342   20.0219   15.3651 c7      1  lig       0.412885
      9 C_08        -30.5611   19.1684   14.6421 c8      1  lig      -0.061141
     10 C_09        -29.6457   19.9926   13.9132 c9      1  lig      -0.343913
     11 C_0a        -30.0090   21.3003   14.1892 cb      1  lig      -0.148774
     12 N_0b        -31.0825   21.3143   15.0499 nA      1  lig      -0.293730
     13 C_0c        -29.1862   16.4386   13.2284 ci      1  lig       0.049460
     14 C_0d        -29.4870   17.1416   11.8818 cj      1  lig       0.102669
     15 C_0e        -28.3051   17.0077   10.8957 ck      1  lig      -0.119866
     16 C_0f        -26.9575   17.4260   11.5433 cm      1  lig       0.056839
     17 C_0g        -26.6891   16.6910   12.8365 cn      1  lig      -0.221978
     18 C_0h        -27.8410   16.8768   13.8355 co      1  lig       0.099821
     19 N_0i        -25.7345   16.9981   10.6928 nB      1  lig      -0.278915
     20 C_0j        -24.7169   18.1374   10.5221 cq      1  lig      -0.014199
     21 H_0k        -33.3822   17.9844   16.9814 h0      1  lig       0.136454
     22 H_0l        -28.8251   19.7142   13.2670 h6      1  lig       0.196746
     23 H_0m        -29.5952   22.2341   13.8378 h7      1  lig       0.213750
     24 H_0n        -31.5125   22.1665   15.3882 h8      1  lig       0.347227
     25 H_0o        -29.0808   15.3812   12.9912 h9      1  lig       0.030527
     26 H_0p        -29.7209   18.1936   12.0148 hb      1  lig      -0.001354
     27 H_0q        -30.3791   16.7023   11.4321 hd      1  lig      -0.001354
     28 H_0r        -28.5200   17.5954   10.0017 he      1  lig       0.071190
     29 H_0s        -28.2356   15.9719   10.5623 hf      1  lig       0.071190
     30 H_0t        -27.0204   18.5050   11.7277 hg      1  lig       0.088824
     31 H_0u        -25.7615   17.0248   13.2962 hh      1  lig       0.108448
     32 H_0v        -26.5552   15.6277   12.6328 hi      1  lig       0.108448
     33 H_0w        -27.6329   16.2931   14.7332 hj      1  lig       0.004153
     34 H_0x        -27.8790   17.9153   14.1539 hk      1  lig       0.004153
     35 H_0y        -25.0760   19.0429   11.0122 hl      1  lig       0.116471
     36 H_0z        -24.8253   18.1628    9.4501 hm      1  lig       0.116471
     37 C_10        -23.2176   17.9325   10.7575 cr      1  lig      -0.066728
     38 H_11        -22.7509   18.8853   10.5024 hq      1  lig       0.127365
     39 H_12        -22.7585   17.2420   10.0647 hr      1  lig       0.127365
     40 N_13        -22.4216   17.3944   13.1897 nC      1  lig      -0.375449
     41 C_14        -22.7757   17.6326   12.1189 cs      1  lig       0.266813
     42 H_15        -25.2914   16.1810   11.0927 ht      1  lig       0.298748
     43 H_16        -26.0434   16.7485    9.7606 hu      1  lig       0.298748
@<TRIPOS>BOND
     1     1     2    1
     2     1     5    2
     3     2     3    1
     4     2    13    1
     5     3     4    2
     6     3     9    1
     7     4     5    1
     8     4     6    1
     9     6     7    2
    10     6    21    1
    11     7     8    1
    12     8     9    2
    13     8    12    1
    14     9    10    1
    15    10    11    2
    16    10    22    1
    17    11    12    1
    18    11    23    1
    19    12    24    1
    20    13    14    1
    21    13    18    1
    22    13    25    1
    23    14    15    1
    24    14    26    1
    25    14    27    1
    26    15    16    1
    27    15    28    1
    28    15    29    1
    29    16    17    1
    30    16    19    1
    31    16    30    1
    32    17    18    1
    33    17    31    1
    34    17    32    1
    35    18    33    1
    36    18    34    1
    37    19    20    1
    38    19    42    1
    39    19    43    1
    40    20    35    1
    41    20    36    1
    42    20    37    1
    43    37    38    1
    44    37    39    1
    45    37    41    1
    46    40    41    3
