@<TRIPOS>MOLECULE
lig
  42   45 0 0 0
SMALL
NO_CHARGES


@<TRIPOS>ATOM
      1 N_00        -31.0114   15.5779   14.7787 n0      1  lig      -0.228995
      2 N_01        -30.2646   16.6120   14.2124 ng      1  lig       0.282399
      3 C_02        -30.7949   17.7703   14.7797 c4      1  lig      -0.002783
      4 C_03        -31.8278   17.3381   15.6333 c5      1  lig       0.177895
      5 N_04        -31.9121   15.9810   15.6453 nr      1  lig      -0.328044
      6 C_05        -32.5974   18.2935   16.3108 c6      1  lig       0.155337
      7 N_06        -32.4238   19.6375   16.1766 nw      1  lig      -0.586139
      8 C_07        -31.4342   20.0219   15.3651 c7      1  lig       0.419768
      9 C_08        -30.5611   19.1684   14.6421 c8      1  lig      -0.101119
     10 C_09        -29.6464   19.9923   13.9129 c9      1  lig      -0.244438
     11 C_0a        -30.0090   21.3003   14.1892 cb      1  lig      -0.188040
     12 N_0b        -31.0825   21.3143   15.0499 nA      1  lig      -0.314732
     13 C_0c        -29.1863   16.4387   13.2285 ci      1  lig       0.023991
     14 C_0d        -29.4870   17.1415   11.8818 cj      1  lig       0.095314
     15 C_0e        -28.3050   17.0077   10.8957 ck      1  lig      -0.096265
     16 C_0f        -26.9297   17.4169   11.5191 cm      1  lig       0.134678
     17 C_0g        -26.6891   16.6910   12.8366 cn      1  lig      -0.114342
     18 C_0h        -27.8410   16.8767   13.8355 co      1  lig       0.064937
     19 N_0i        -25.7569   17.0103   10.7243 nB      1  lig      -0.732951
     20 C_0j        -24.7737   18.0837   10.5380 cq      1  lig       0.097078
     21 H_0k        -33.3822   17.9844   16.9814 h0      1  lig       0.125177
     22 H_0l        -28.8248   19.7144   13.2672 h6      1  lig       0.166282
     23 H_0m        -29.5952   22.2341   13.8378 h7      1  lig       0.211723
     24 H_0n        -31.5125   22.1665   15.3882 h8      1  lig       0.341896
     25 H_0o        -29.0809   15.3811   12.9912 h9      1  lig       0.023918
     26 H_0p        -29.7209   18.1936   12.0148 hb      1  lig      -0.025539
     27 H_0q        -30.3791   16.7023   11.4322 hd      1  lig      -0.025539
     28 H_0r        -28.5200   17.5955   10.0017 he      1  lig       0.048808
     29 H_0s        -28.2356   15.9719   10.5623 hf      1  lig       0.048808
     30 H_0t        -27.0203   18.5049   11.7276 hg      1  lig       0.106230
     31 H_0u        -25.7615   17.0248   13.2962 hh      1  lig       0.055176
     32 H_0v        -26.5552   15.6277   12.6328 hi      1  lig       0.055176
     33 H_0w        -27.6329   16.2931   14.7332 hj      1  lig      -0.020220
     34 H_0x        -27.8790   17.9153   14.1539 hk      1  lig      -0.020220
     35 H_0y        -25.0831   19.0188   11.0056 hl      1  lig       0.041910
     36 H_0z        -24.8401   18.1681    9.4652 hm      1  lig       0.041910
     37 C_10        -23.2580   17.9225   10.7670 cr      1  lig      -0.060708
     38 H_11        -22.7788   18.8672   10.5081 hq      1  lig       0.086093
     39 H_12        -22.7997   17.2164   10.0878 hr      1  lig       0.086093
     40 N_13        -22.4354   17.3568   13.1924 nC      1  lig      -0.462799
     41 C_14        -22.8051   17.6072   12.1268 cs      1  lig       0.305076
     42 H_15        -25.3156   16.1879   11.1130 ht      1  lig       0.357200
@<TRIPOS>BOND
     1     1     2    1
     2     1     5    2
     3     2     3    1
     4     2    13    1
     5     3     4    2
     6     3     9    1
     7     4     5    1
     8     4     6    1
     9     6     7    2
    10     6    21    1
    11     7     8    1
    12     8     9    2
    13     8    12    1
    14     9    10    1
    15    10    11    2
    16    10    22    1
    17    11    12    1
    18    11    23    1
    19    12    24    1
    20    13    14    1
    21    13    18    1
    22    13    25    1
    23    14    15    1
    24    14    26    1
    25    14    27    1
    26    15    16    1
    27    15    28    1
    28    15    29    1
    29    16    17    1
    30    16    19    1
    31    16    30    1
    32    17    18    1
    33    17    31    1
    34    17    32    1
    35    18    33    1
    36    18    34    1
    37    19    20    1
    38    19    42    1
    39    20    35    1
    40    20    36    1
    41    20    37    1
    42    37    38    1
    43    37    39    1
    44    37    41    1
    45    40    41    3
