@<TRIPOS>MOLECULE
lig
  48   51 0 0 0
SMALL
NO_CHARGES


@<TRIPOS>ATOM
      1 C_00        -31.4953   13.1119   15.3654 c4      1  lig      -0.280817
      2 C_01        -30.8583   14.1129   14.3840 c5      1  lig       0.296161
      3 O_02        -31.4599   13.9510   13.1214 o0      1  lig      -0.653678
      4 C_03        -31.0114   15.5779   14.7787 c6      1  lig       0.409047
      5 N_04        -30.2663   16.6126   14.2144 n0      1  lig      -0.046819
      6 C_05        -30.7949   17.7703   14.7797 c7      1  lig      -0.022716
      7 C_06        -31.8278   17.3381   15.6333 c8      1  lig       0.114228
      8 N_07        -31.9121   15.9810   15.6453 ng      1  lig      -0.607473
      9 C_08        -32.5974   18.2935   16.3108 c9      1  lig       0.201058
     10 N_09        -32.4238   19.6375   16.1766 nr      1  lig      -0.636637
     11 C_0a        -31.4342   20.0219   15.3651 cb      1  lig       0.449400
     12 C_0b        -30.5611   19.1684   14.6421 ci      1  lig      -0.026867
     13 C_0c        -29.6411   19.9940   13.9148 cj      1  lig      -0.320207
     14 C_0d        -30.0090   21.3003   14.1892 ck      1  lig      -0.162427
     15 N_0e        -31.0825   21.3143   15.0499 nw      1  lig      -0.343898
     16 C_0f        -29.1854   16.4380   13.2276 cm      1  lig      -0.041354
     17 C_0g        -29.4872   17.1421   11.8819 cn      1  lig      -0.011023
     18 C_0h        -28.3057   17.0081   10.8959 co      1  lig      -0.169552
     19 C_0i        -26.9476   17.4389   11.5082 cq      1  lig       0.056430
     20 C_0j        -26.6887   16.6913   12.8358 cr      1  lig      -0.037386
     21 C_0k        -27.8409   16.8772   13.8358 cs      1  lig      -0.071949
     22 C_0l        -25.7937   17.2477   10.5006 ct      1  lig      -0.105511
     23 C_0m        -24.5147   18.0366   10.8222 cw      1  lig      -0.017810
     24 C_0n        -23.6476   17.4671   11.8558 cA      1  lig       0.305207
     25 N_0o        -22.9586   17.0280   12.6694 nA      1  lig      -0.476623
     26 H_0p        -31.0769   13.2278   16.3654 h0      1  lig       0.080729
     27 H_0q        -32.5754   13.2415   15.4383 h6      1  lig       0.080729
     28 H_0r        -31.3063   12.0848   15.0540 h7      1  lig       0.080729
     29 H_0s        -29.8090   13.8411   14.2941 h8      1  lig       0.005874
     30 H_0t        -31.5125   13.0111   12.9166 h9      1  lig       0.412318
     31 H_0u        -33.3822   17.9844   16.9814 hb      1  lig       0.116859
     32 H_0v        -28.8270   19.7129   13.2656 hd      1  lig       0.191891
     33 H_0w        -29.5952   22.2341   13.8378 he      1  lig       0.203854
     34 H_0x        -31.5125   22.1665   15.3882 hf      1  lig       0.343695
     35 H_0y        -29.0805   15.3814   12.9909 hg      1  lig       0.091615
     36 H_0z        -29.7209   18.1936   12.0147 hh      1  lig       0.043297
     37 H_10        -30.3791   16.7023   11.4321 hi      1  lig       0.043297
     38 H_11        -28.5201   17.5953   10.0016 hj      1  lig       0.051281
     39 H_12        -28.2355   15.9719   10.5623 hk      1  lig       0.051281
     40 H_13        -27.0208   18.5054   11.7279 hl      1  lig       0.033015
     41 H_14        -25.7617   17.0246   13.2961 hm      1  lig       0.042500
     42 H_15        -26.5551   15.6278   12.6325 hq      1  lig       0.042500
     43 H_16        -27.6329   16.2931   14.7332 hr      1  lig       0.027878
     44 H_17        -27.8789   17.9153   14.1538 ht      1  lig       0.027878
     45 H_18        -26.1308   17.5881    9.5223 hu      1  lig       0.052310
     46 H_19        -25.5614   16.1893   10.3832 hv      1  lig       0.052310
     47 H_1a        -24.7549   19.0469   11.1445 hy      1  lig       0.062688
     48 H_1b        -23.9010   18.1107    9.9276 hz      1  lig       0.062688
@<TRIPOS>BOND
     1     1     2    1
     2     1    26    1
     3     1    27    1
     4     1    28    1
     5     2     3    1
     6     2     4    1
     7     2    29    1
     8     3    30    1
     9     4     5    1
    10     4     8    2
    11     5     6    1
    12     5    16    1
    13     6     7    2
    14     6    12    1
    15     7     8    1
    16     7     9    1
    17     9    10    2
    18     9    31    1
    19    10    11    1
    20    11    12    2
    21    11    15    1
    22    12    13    1
    23    13    14    2
    24    13    32    1
    25    14    15    1
    26    14    33    1
    27    15    34    1
    28    16    17    1
    29    16    21    1
    30    16    35    1
    31    17    18    1
    32    17    36    1
    33    17    37    1
    34    18    19    1
    35    18    38    1
    36    18    39    1
    37    19    20    1
    38    19    22    1
    39    19    40    1
    40    20    21    1
    41    20    41    1
    42    20    42    1
    43    21    43    1
    44    21    44    1
    45    22    23    1
    46    22    45    1
    47    22    46    1
    48    23    24    1
    49    23    47    1
    50    23    48    1
    51    24    25    3
