@<TRIPOS>MOLECULE
lig
  42   45 0 0 0
SMALL
NO_CHARGES


@<TRIPOS>ATOM
      1 C_00        -31.4953   13.1119   15.3654 c4      1  lig      -0.296262
      2 C_01        -30.8583   14.1129   14.3840 c5      1  lig       0.311857
      3 O_02        -31.4599   13.9510   13.1214 o0      1  lig      -0.647548
      4 C_03        -31.0114   15.5779   14.7787 c6      1  lig       0.392756
      5 N_04        -30.2663   16.6126   14.2144 n0      1  lig      -0.034203
      6 C_05        -30.7949   17.7703   14.7797 c7      1  lig      -0.019310
      7 C_06        -31.8278   17.3381   15.6333 c8      1  lig       0.110813
      8 N_07        -31.9121   15.9810   15.6453 ng      1  lig      -0.603805
      9 C_08        -32.5974   18.2935   16.3108 c9      1  lig       0.199927
     10 N_09        -32.4238   19.6375   16.1766 nr      1  lig      -0.636423
     11 C_0a        -31.4342   20.0219   15.3651 cb      1  lig       0.453065
     12 C_0b        -30.5611   19.1684   14.6421 ci      1  lig      -0.029379
     13 C_0c        -29.6411   19.9940   13.9148 cj      1  lig      -0.333342
     14 C_0d        -30.0090   21.3003   14.1892 ck      1  lig      -0.154246
     15 N_0e        -31.0825   21.3143   15.0499 nw      1  lig      -0.349242
     16 C_0f        -29.1854   16.4380   13.2276 cm      1  lig      -0.039246
     17 C_0g        -29.4872   17.1421   11.8819 cn      1  lig      -0.046342
     18 C_0h        -28.3057   17.0081   10.8959 co      1  lig      -0.106385
     19 C_0i        -26.9476   17.4389   11.5082 cq      1  lig       0.231171
     20 C_0j        -26.6887   16.6913   12.8358 cr      1  lig      -0.049491
     21 C_0k        -27.8409   16.8772   13.8358 cs      1  lig      -0.033717
     22 O_0l        -25.8937   17.2642   10.5879 o1      1  lig      -0.676549
     23 H_0m        -31.0769   13.2278   16.3654 h0      1  lig       0.084157
     24 H_0n        -32.5754   13.2415   15.4383 h6      1  lig       0.084157
     25 H_0o        -31.3063   12.0848   15.0540 h7      1  lig       0.084157
     26 H_0p        -29.8090   13.8411   14.2941 h8      1  lig       0.000000
     27 H_0q        -31.5125   13.0111   12.9166 h9      1  lig       0.407549
     28 H_0r        -33.3822   17.9844   16.9814 hb      1  lig       0.116898
     29 H_0s        -28.8270   19.7129   13.2656 hd      1  lig       0.197894
     30 H_0t        -29.5952   22.2341   13.8378 he      1  lig       0.203264
     31 H_0u        -31.5125   22.1665   15.3882 hf      1  lig       0.344880
     32 H_0v        -29.0805   15.3814   12.9909 hg      1  lig       0.091856
     33 H_0w        -29.7209   18.1936   12.0147 hh      1  lig       0.043012
     34 H_0x        -30.3791   16.7023   11.4321 hi      1  lig       0.043012
     35 H_0y        -28.5201   17.5953   10.0016 hj      1  lig       0.067033
     36 H_0z        -28.2355   15.9719   10.5623 hk      1  lig       0.067033
     37 H_10        -27.0208   18.5054   11.7279 hl      1  lig       0.022213
     38 H_11        -25.7617   17.0246   13.2961 hm      1  lig       0.027797
     39 H_12        -26.5551   15.6278   12.6325 hq      1  lig       0.027797
     40 H_13        -27.6329   16.2931   14.7332 hr      1  lig       0.015720
     41 H_14        -27.8789   17.9153   14.1538 ht      1  lig       0.015720
     42 H_15        -25.0669   17.5378   10.9918 hu      1  lig       0.411752
@<TRIPOS>BOND
     1     1     2    1
     2     1    23    1
     3     1    24    1
     4     1    25    1
     5     2     3    1
     6     2     4    1
     7     2    26    1
     8     3    27    1
     9     4     5    1
    10     4     8    2
    11     5     6    1
    12     5    16    1
    13     6     7    2
    14     6    12    1
    15     7     8    1
    16     7     9    1
    17     9    10    2
    18     9    28    1
    19    10    11    1
    20    11    12    2
    21    11    15    1
    22    12    13    1
    23    13    14    2
    24    13    29    1
    25    14    15    1
    26    14    30    1
    27    15    31    1
    28    16    17    1
    29    16    21    1
    30    16    32    1
    31    17    18    1
    32    17    33    1
    33    17    34    1
    34    18    19    1
    35    18    35    1
    36    18    36    1
    37    19    20    1
    38    19    22    1
    39    19    37    1
    40    20    21    1
    41    20    38    1
    42    20    39    1
    43    21    40    1
    44    21    41    1
    45    22    42    1
