@<TRIPOS>MOLECULE
lig
  41   44 0 0 0
SMALL
NO_CHARGES


@<TRIPOS>ATOM
      1 C_00         11.9325    8.2100   15.2114 c4      1  lig       0.300474
      2 C_01         11.1981    9.4140   15.2694 c5      1  lig       0.216609
      3 C_02          9.9029    9.3955   15.8476 c6      1  lig      -0.207172
      4 C_03          9.3396    8.2048   16.3620 c7      1  lig      -0.044184
      5 C_04         10.0994    7.0168   16.2884 c8      1  lig      -0.139576
      6 C_05         11.3850    7.0174   15.7187 c9      1  lig      -0.343444
      7 O_06         13.1827    8.1925   14.6616 o0      1  lig      -0.633479
      8 O_07         11.7926   10.5473   14.7526 o1      1  lig      -0.266032
      9 C_08         11.0732   11.7704   14.8058 cb      1  lig      -0.055163
     10 C_09          7.9902    8.2029   16.9622 ci      1  lig       0.035382
     11 C_0a          7.6235    9.1877   17.9154 cj      1  lig      -0.184714
     12 C_0b          6.3294    9.1428   18.4576 ck      1  lig       0.078699
     13 C_0c          5.4073    8.1797   18.0963 cm      1  lig      -0.008177
     14 C_0d          5.7367    7.1901   17.1549 cn      1  lig      -0.234734
     15 C_0e          7.0349    7.2139   16.5952 co      1  lig      -0.128217
     16 N_0f          5.7383    9.9903   19.3960 n0      1  lig      -0.406829
     17 C_0g          4.4665    9.6362   19.6545 cq      1  lig       0.546550
     18 C_0h          4.1864    8.4381   18.8536 cr      1  lig      -0.056975
     19 O_0i          3.7225   10.2633   20.4036 o2      1  lig      -0.606116
     20 C_0j          3.0360    7.7316   18.7982 cs      1  lig      -0.136661
     21 C_0k          1.7922    7.8119   19.5077 ct      1  lig       0.029847
     22 N_0l          1.3950    9.0370   20.0052 ng      1  lig      -0.173896
     23 C_0m          0.1982    8.9361   20.6798 cw      1  lig      -0.148813
     24 C_0n         -0.1768    7.6241   20.6185 cA      1  lig      -0.236295
     25 C_0o          0.8248    6.9180   19.8885 cB      1  lig      -0.186996
     26 H_0p          9.3134   10.2978   15.8984 h0      1  lig       0.140396
     27 H_0q          9.7012    6.0918   16.6791 h6      1  lig       0.154496
     28 H_0r         11.9492    6.0974   15.6749 h7      1  lig       0.176296
     29 H_0s         13.4661    7.3283   14.4066 h8      1  lig       0.454906
     30 H_0t         11.6786   12.5624   14.3651 h9      1  lig       0.078778
     31 H_0u         10.1440   11.7117   14.2374 hb      1  lig       0.078778
     32 H_0v         10.8518   12.0589   15.8342 hd      1  lig       0.078778
     33 H_0w          8.3189    9.9530   18.2274 he      1  lig       0.147750
     34 H_0x          5.0239    6.4329   16.8642 hf      1  lig       0.166929
     35 H_0y          7.2949    6.4614   15.8652 hg      1  lig       0.127441
     36 H_0z          6.2143   10.7862   19.7946 hh      1  lig       0.339466
     37 H_10          3.0624    6.8916   18.1194 hi      1  lig       0.174259
     38 H_11          1.9158    9.8951   19.8929 hj      1  lig       0.341764
     39 H_12         -0.2672    9.7980   21.1350 hk      1  lig       0.194283
     40 H_13         -1.0762    7.2122   21.0519 hl      1  lig       0.170653
     41 H_14          0.8129    5.8641   19.6586 hm      1  lig       0.164939
@<TRIPOS>BOND
     1     1     2    2
     2     1     6    1
     3     1     7    1
     4     2     3    1
     5     2     8    1
     6     3     4    2
     7     3    26    1
     8     4     5    1
     9     4    10    1
    10     5     6    2
    11     5    27    1
    12     6    28    1
    13     7    29    1
    14     8     9    1
    15     9    30    1
    16     9    31    1
    17     9    32    1
    18    10    11    2
    19    10    15    1
    20    11    12    1
    21    11    33    1
    22    12    13    2
    23    12    16    1
    24    13    14    1
    25    13    18    1
    26    14    15    2
    27    14    34    1
    28    15    35    1
    29    16    17    1
    30    16    36    1
    31    17    18    1
    32    17    19    2
    33    18    20    2
    34    20    21    1
    35    20    37    1
    36    21    22    1
    37    21    25    2
    38    22    23    1
    39    22    38    1
    40    23    24    2
    41    23    39    1
    42    24    25    1
    43    24    40    1
    44    25    41    1
