@<TRIPOS>MOLECULE
lig
  40   43 0 0 0
SMALL
NO_CHARGES


@<TRIPOS>ATOM
      1 C_00         10.8552   11.5925   14.1892 c4      1  lig      -0.054453
      2 O_01         11.6877   10.4684   14.4337 o0      1  lig      -0.252462
      3 C_02         11.1709    9.4156   15.1612 c5      1  lig       0.186460
      4 C_03          9.8533    9.3900   15.6860 c6      1  lig      -0.174810
      5 C_04          9.3737    8.2850   16.4266 c7      1  lig      -0.066865
      6 C_05          7.9984    8.2735   16.9650 c8      1  lig       0.050505
      7 C_06          7.0264    7.3695   16.4520 c9      1  lig      -0.125695
      8 C_07          5.7035    7.3390   16.9502 cb      1  lig      -0.256111
      9 C_08          5.3650    8.2354   17.9780 ci      1  lig       0.044529
     10 C_09          4.1180    8.4593   18.7045 cj      1  lig      -0.043277
     11 C_0a          2.9561    7.7928   18.5088 ck      1  lig      -0.173770
     12 C_0b          1.6792    7.8787   19.2205 cm      1  lig       0.364444
     13 N_0c          0.7469    6.9366   19.3341 n0      1  lig      -0.525732
     14 C_0d         -0.2572    7.5043   20.1187 cn      1  lig       0.086818
     15 C_0e          0.0983    8.7866   20.4648 co      1  lig      -0.307403
     16 N_0f          1.3354    8.9922   19.8800 ng      1  lig      -0.163077
     17 C_0g          4.4040    9.5590   19.6388 cq      1  lig       0.470779
     18 O_0h          3.6526   10.1489   20.4104 o1      1  lig      -0.578017
     19 N_0i          5.6991    9.8835   19.4755 nr      1  lig      -0.343660
     20 C_0j          6.3036    9.1155   18.4802 cr      1  lig       0.046019
     21 C_0k          7.6227    9.1649   18.0028 cs      1  lig      -0.188469
     22 C_0l         10.2418    7.1917   16.6387 ct      1  lig      -0.135545
     23 C_0m         11.5509    7.2006   16.1254 cw      1  lig      -0.322417
     24 C_0n         12.0141    8.3069   15.3899 cA      1  lig       0.288393
     25 O_0o         13.2883    8.2986   14.8984 o2      1  lig      -0.626927
     26 H_0p         11.4071   12.3272   13.6031 h0      1  lig       0.078980
     27 H_0q          9.9679   11.3154   13.6184 h6      1  lig       0.078980
     28 H_0r         10.5522   12.0743   15.1198 h7      1  lig       0.078980
     29 H_0s          9.1880   10.2260   15.5355 h8      1  lig       0.132449
     30 H_0t          7.2974    6.6786   15.6673 h9      1  lig       0.130863
     31 H_0u          4.9798    6.6441   16.5508 hb      1  lig       0.186506
     32 H_0v          2.9710    7.0248   17.7498 hd      1  lig       0.168457
     33 H_0w         -1.1487    6.9491   20.3709 he      1  lig       0.128023
     34 H_0x         -0.4042    9.5382   21.0558 hf      1  lig       0.219874
     35 H_0y          1.8869    9.8358   19.9420 hg      1  lig       0.335027
     36 H_0z          6.1827   10.6160   19.9739 hh      1  lig       0.329855
     37 H_10          8.3256    9.8736   18.4156 hi      1  lig       0.150882
     38 H_11          9.9039    6.3288   17.1938 hj      1  lig       0.154132
     39 H_12         12.1971    6.3524   16.2979 hk      1  lig       0.170657
     40 H_13         13.5960    7.4343   14.6737 hl      1  lig       0.457078
@<TRIPOS>BOND
     1     1     2    1
     2     1    26    1
     3     1    27    1
     4     1    28    1
     5     2     3    1
     6     3    24    2
     7     3     4    1
     8     4     5    2
     9     4    29    1
    10     5     6    1
    11     5    22    1
    12     6    21    1
    13     6     7    2
    14     7     8    1
    15     7    30    1
    16     8     9    2
    17     8    31    1
    18     9    20    1
    19     9    10    1
    20    10    11    2
    21    10    17    1
    22    11    12    1
    23    11    32    1
    24    12    16    1
    25    12    13    2
    26    13    14    1
    27    14    15    2
    28    14    33    1
    29    15    16    1
    30    15    34    1
    31    16    35    1
    32    17    18    2
    33    17    19    1
    34    19    20    1
    35    19    36    1
    36    20    21    2
    37    21    37    1
    38    22    23    2
    39    22    38    1
    40    23    24    1
    41    23    39    1
    42    24    25    1
    43    25    40    1
