@<TRIPOS>MOLECULE
lig
  41   44 0 0 0
SMALL
NO_CHARGES


@<TRIPOS>ATOM
      1 C_00         11.0188   11.8141   14.9086 c4      1  lig      -0.053939
      2 O_01         11.7487   10.5992   14.8217 o0      1  lig      -0.253360
      3 C_02         11.1678    9.4486   15.3151 c5      1  lig       0.183250
      4 C_03          9.8810    9.4064   15.9106 c6      1  lig      -0.168761
      5 C_04          9.3326    8.1991   16.4018 c7      1  lig      -0.067167
      6 C_05          7.9906    8.1721   17.0179 c8      1  lig       0.024068
      7 C_06          7.1573    7.0256   16.8902 c9      1  lig      -0.117487
      8 C_07          5.8689    6.9746   17.4704 cb      1  lig      -0.248534
      9 C_08          5.4237    8.0990   18.1855 ci      1  lig      -0.003228
     10 C_09          4.1749    8.3750   18.8887 cj      1  lig      -0.049389
     11 C_0a          3.1203    7.5375   19.0101 ck      1  lig      -0.157857
     12 C_0b          1.7968    7.7589   19.6165 cm      1  lig       0.051700
     13 C_0c          0.5214    7.3957   19.0880 cn      1  lig      -0.254957
     14 C_0d         -0.4217    7.8070   19.9898 co      1  lig      -0.177266
     15 N_0e          0.2514    8.4011   21.0385 n0      1  lig      -0.282366
     16 C_0f          1.6131    8.3758   20.8220 cq      1  lig      -0.094220
     17 C_0g          4.3362    9.7184   19.4616 cr      1  lig       0.577332
     18 O_0h          3.5835   10.3455   20.2030 o1      1  lig      -0.591066
     19 N_0i          5.5425   10.1673   19.0709 ng      1  lig      -0.460050
     20 C_0j          6.2271    9.2154   18.3138 cs      1  lig       0.096688
     21 C_0k          7.5097    9.2896   17.7479 ct      1  lig      -0.179207
     22 C_0l         10.0994    7.0188   16.2884 cw      1  lig      -0.132484
     23 C_0m         11.3767    7.0427   15.7006 cA      1  lig      -0.324977
     24 C_0n         11.9090    8.2514   15.2159 cB      1  lig       0.286231
     25 O_0o         13.1510    8.2563   14.6477 o2      1  lig      -0.628753
     26 H_0p         11.6104   12.6202   14.4749 h0      1  lig       0.078436
     27 H_0q         10.0820   11.7575   14.3527 h6      1  lig       0.078436
     28 H_0r         10.8098   12.0806   15.9455 h7      1  lig       0.078436
     29 H_0s          9.2938   10.3063   16.0088 h8      1  lig       0.129536
     30 H_0t          7.5109    6.1631   16.3445 h9      1  lig       0.126824
     31 H_0u          5.2496    6.0963   17.3648 hb      1  lig       0.166105
     32 H_0v          3.2139    6.5750   18.5293 hd      1  lig       0.176106
     33 H_0w          0.3114    6.8826   18.1614 he      1  lig       0.169107
     34 H_0x         -1.4992    7.7312   19.9856 hf      1  lig       0.191631
     35 H_0y         -0.1930    8.7996   21.8535 hg      1  lig       0.347133
     36 H_0z          2.3083    8.7961   21.5340 hh      1  lig       0.215347
     37 H_10          5.9412   11.0601   19.3218 hi      1  lig       0.345050
     38 H_11          8.1063   10.1823   17.8650 hj      1  lig       0.147145
     39 H_12          9.7065    6.0787   16.6468 hk      1  lig       0.151320
     40 H_13         11.9448    6.1273   15.6223 hl      1  lig       0.169332
     41 H_14         13.3721    7.4400   14.2270 hm      1  lig       0.455855
@<TRIPOS>BOND
     1     1     2    1
     2     1    26    1
     3     1    27    1
     4     1    28    1
     5     2     3    1
     6     3    24    2
     7     3     4    1
     8     4     5    2
     9     4    29    1
    10     5     6    1
    11     5    22    1
    12     6    21    1
    13     6     7    2
    14     7     8    1
    15     7    30    1
    16     8     9    2
    17     8    31    1
    18     9    20    1
    19     9    10    1
    20    10    11    2
    21    10    17    1
    22    11    12    1
    23    11    32    1
    24    12    16    2
    25    12    13    1
    26    13    14    2
    27    13    33    1
    28    14    15    1
    29    14    34    1
    30    15    16    1
    31    15    35    1
    32    16    36    1
    33    17    18    2
    34    17    19    1
    35    19    20    1
    36    19    37    1
    37    20    21    2
    38    21    38    1
    39    22    23    2
    40    22    39    1
    41    23    24    1
    42    23    40    1
    43    24    25    1
    44    25    41    1
