@<TRIPOS>MOLECULE
lig
  57   60 0 0 0
SMALL
NO_CHARGES


@<TRIPOS>ATOM
      1 C_00         15.2899   -4.6440    7.5351 c4      1  lig      -0.040378
      2 N_01         14.2408   -3.9683    6.6690 n0      1  lig      -0.041730
      3 C_02         14.7206   -3.0566    5.5418 c5      1  lig      -0.141056
      4 C_03         14.8984   -3.7855    4.1902 c6      1  lig       0.048032
      5 C_04         15.0728   -5.3257    4.2388 c7      1  lig      -0.055336
      6 C_05         15.2134   -5.9104    2.8261 c8      1  lig      -0.239589
      7 C_06         14.0958   -5.4095    1.8827 c9      1  lig      -0.007800
      8 C_07         12.7022   -6.0636    2.1368 cb      1  lig      -0.000142
      9 C_08         12.7070   -7.5842    2.0907 ci      1  lig      -0.129738
     10 C_09         12.2595   -8.4762    3.0628 cj      1  lig       0.009750
     11 C_0a         12.4745   -9.8243    2.7647 ck      1  lig      -0.278935
     12 C_0b         13.0252  -10.0075    1.5129 cm      1  lig      -0.152773
     13 S_0c         13.3330   -8.4922    0.7364 s0      1  lig       0.004367
     14 N_0d         11.6991   -5.5164    1.2216 ng      1  lig      -0.511181
     15 C_0e         11.7868   -4.1856    0.7799 cn      1  lig       0.218383
     16 C_0f         10.7738   -3.7177   -0.0535 co      1  lig      -0.251107
     17 C_0g         10.8219   -2.4249   -0.5507 cq      1  lig      -0.210385
     18 C_0h         11.8669   -1.5627   -0.1974 cr      1  lig       0.002447
     19 C_0i         11.9198   -0.1294   -0.7526 cs      1  lig       0.330483
     20 C_0j         10.4882    0.3797   -0.9919 ct      1  lig      -0.401653
     21 C_0k         12.6705   -0.0930   -2.0912 cw      1  lig      -0.210145
     22 C_0l         12.6599    0.8143    0.2183 cA      1  lig      -0.311166
     23 C_0m         12.8580   -2.0372    0.6716 cB      1  lig      -0.230789
     24 C_0n         12.8622   -3.3514    1.1382 cC      1  lig       0.014987
     25 C_0o         14.0094   -3.8677    1.9934 cD      1  lig       0.017207
     26 O_0p         13.7960   -3.4623    3.3445 o0      1  lig      -0.356901
     27 H_0q         14.6664   -5.2237    8.2169 h0      1  lig       0.087494
     28 H_0r         15.8523   -3.8448    8.0176 h6      1  lig       0.087494
     29 H_0s         15.8748   -5.2649    6.8653 h7      1  lig       0.087494
     30 H_0t         13.7110   -4.7018    6.2296 h8      1  lig       0.250148
     31 H_0u         13.9057   -2.3303    5.5154 h9      1  lig       0.134763
     32 H_0v         15.6371   -2.5924    5.9000 hb      1  lig       0.134763
     33 H_0w         15.7935   -3.3529    3.7429 hd      1  lig       0.122365
     34 H_0x         15.9485   -5.5941    4.8268 he      1  lig       0.059322
     35 H_0y         14.2142   -5.7907    4.7217 hf      1  lig       0.059322
     36 H_0z         16.1837   -5.6238    2.4135 hg      1  lig       0.111762
     37 H_10         15.2279   -6.9978    2.8763 hh      1  lig       0.111762
     38 H_11         14.4053   -5.6215    0.8588 hi      1  lig       0.125736
     39 H_12         12.3641   -5.7750    3.1321 hj      1  lig       0.111036
     40 H_13         11.8117   -8.1486    3.9889 hk      1  lig       0.110760
     41 H_14         12.2118  -10.6326    3.4332 hl      1  lig       0.187583
     42 H_15         13.2650  -10.9429    1.0257 hm      1  lig       0.219733
     43 H_16         10.7720   -5.8918    1.3809 hq      1  lig       0.346929
     44 H_17          9.9477   -4.3525   -0.3357 hr      1  lig       0.160037
     45 H_18         10.0337   -2.1012   -1.2145 ht      1  lig       0.200532
     46 H_19         10.4127    1.4448   -1.0125 hu      1  lig       0.098144
     47 H_1a          9.8181    0.0700   -0.2204 hv      1  lig       0.098144
     48 H_1b         10.0518    0.0158   -1.8864 hy      1  lig       0.098144
     49 H_1c         12.1527   -0.6813   -2.8327 hz      1  lig       0.057309
     50 H_1d         13.6843   -0.4720   -2.0012 hA      1  lig       0.057309
     51 H_1e         12.7560    0.9141   -2.4864 hB      1  lig       0.057309
     52 H_1f         12.5165    1.8671   -0.0212 hC      1  lig       0.079250
     53 H_1g         13.7282    0.6208    0.2096 hD      1  lig       0.079250
     54 H_1h         12.3734    0.6364    1.2460 hE      1  lig       0.079250
     55 H_1i         13.6663   -1.3913    0.9779 hF      1  lig       0.139366
     56 H_1j         14.9478   -3.4140    1.6615 hG      1  lig       0.122490
     57 H_1k         13.6614   -3.4199    7.2878 hH      1  lig       0.250148
@<TRIPOS>BOND
     1     1     2    1
     2     1    27    1
     3     1    28    1
     4     1    29    1
     5     2     3    1
     6     2    30    1
     7     2    57    1
     8     3     4    1
     9     3    31    1
    10     3    32    1
    11     4     5    1
    12     4    26    1
    13     4    33    1
    14     5     6    1
    15     5    34    1
    16     5    35    1
    17     6     7    1
    18     6    36    1
    19     6    37    1
    20     7     8    1
    21     7    25    1
    22     7    38    1
    23     8     9    1
    24     8    14    1
    25     8    39    1
    26     9    10    2
    27     9    13    1
    28    10    11    1
    29    10    40    1
    30    11    12    2
    31    11    41    1
    32    12    13    1
    33    12    42    1
    34    14    15    1
    35    14    43    1
    36    15    16    2
    37    15    24    1
    38    16    17    1
    39    16    44    1
    40    17    18    2
    41    17    45    1
    42    18    19    1
    43    18    23    1
    44    19    20    1
    45    19    21    1
    46    19    22    1
    47    20    46    1
    48    20    47    1
    49    20    48    1
    50    21    49    1
    51    21    50    1
    52    21    51    1
    53    22    52    1
    54    22    53    1
    55    22    54    1
    56    23    24    2
    57    23    55    1
    58    24    25    1
    59    25    26    1
    60    25    56    1
