@<TRIPOS>MOLECULE
lig
  70   73 0 0 0
SMALL
NO_CHARGES


@<TRIPOS>ATOM
      1 C_00         11.8941   -2.8870    6.6585 c4      1  lig      -0.074101
      2 C_01         13.1611   -3.1833    7.4914 c5      1  lig      -0.020798
      3 N_02         14.1889   -3.9556    6.6529 n0      1  lig      -0.030915
      4 C_03         15.2831   -4.6170    7.5349 c6      1  lig      -0.041913
      5 C_04         14.6484   -5.6321    8.4883 c7      1  lig       0.092743
      6 O_05         15.6314   -6.4882    9.0155 o0      1  lig      -0.638670
      7 C_06         14.7830   -3.0434    5.5472 c8      1  lig      -0.073694
      8 C_07         14.9397   -3.7821    4.1936 c9      1  lig       0.024895
      9 C_08         15.0827   -5.3316    4.2335 cb      1  lig      -0.011117
     10 C_09         15.2131   -5.9184    2.8241 ci      1  lig      -0.234242
     11 C_0a         14.0995   -5.4193    1.8815 cj      1  lig      -0.011935
     12 C_0b         12.7089   -6.0737    2.1363 ck      1  lig      -0.043622
     13 C_0c         12.7560   -7.5938    2.0385 cm      1  lig       0.019604
     14 C_0d         12.3233   -8.3792    3.1082 cn      1  lig      -0.084018
     15 C_0e         12.4013   -9.7662    3.0214 co      1  lig      -0.191304
     16 C_0f         12.9053  -10.3669    1.8706 cq      1  lig      -0.106486
     17 C_0g         13.3256   -9.5903    0.7954 cr      1  lig      -0.158168
     18 C_0h         13.2476   -8.2058    0.8797 cs      1  lig      -0.106434
     19 N_0i         11.7083   -5.5287    1.2201 ng      1  lig      -0.554884
     20 C_0j         11.7889   -4.1985    0.7863 ct      1  lig       0.185049
     21 C_0k         10.7777   -3.7353   -0.0458 cw      1  lig      -0.217697
     22 C_0l         10.8328   -2.4457   -0.5434 cA      1  lig      -0.239229
     23 C_0m         11.8762   -1.5795   -0.1948 cB      1  lig       0.020189
     24 C_0n         11.9234   -0.1516   -0.7693 cC      1  lig       0.242909
     25 C_0o         12.6677    0.8246    0.1645 cD      1  lig      -0.251642
     26 C_0p         10.4765    0.3389   -0.9933 cE      1  lig      -0.353379
     27 C_0q         12.6705   -0.1459   -2.1072 cF      1  lig      -0.186223
     28 C_0r         12.8668   -2.0505    0.6751 cG      1  lig      -0.160684
     29 C_0s         12.8600   -3.3611    1.1455 cH      1  lig      -0.016598
     30 C_0t         14.0148   -3.8794    1.9822 cI      1  lig      -0.009574
     31 O_0u         13.8256   -3.4715    3.3390 o1      1  lig      -0.314774
     32 H_0v         11.1742   -2.2996    7.2500 h0      1  lig       0.047734
     33 H_0w         11.4154   -3.8259    6.3623 h6      1  lig       0.047734
     34 H_0x         12.0785   -2.3275    5.7398 h7      1  lig       0.047734
     35 H_0y         13.6696   -2.2854    7.8652 h8      1  lig       0.092317
     36 H_0z         12.8526   -3.7729    8.3489 h9      1  lig       0.092317
     37 H_10         15.9752   -5.1154    6.8759 hb      1  lig       0.089135
     38 H_11         15.8111   -3.8259    8.0549 hd      1  lig       0.089135
     39 H_12         14.1682   -5.1616    9.3545 he      1  lig       0.069010
     40 H_13         13.8946   -6.2297    7.9694 hf      1  lig       0.069010
     41 H_14         16.1600   -5.9879    9.6528 hg      1  lig       0.457976
     42 H_15         14.1503   -2.1969    5.3703 hh      1  lig       0.111430
     43 H_16         15.7253   -2.6313    5.9175 hi      1  lig       0.111430
     44 H_17         15.8458   -3.3513    3.7378 hj      1  lig       0.117004
     45 H_18         15.9744   -5.6136    4.7825 hk      1  lig       0.048643
     46 H_19         14.2321   -5.7899    4.7451 hl      1  lig       0.048643
     47 H_1a         16.1795   -5.6227    2.4155 hm      1  lig       0.097816
     48 H_1b         15.2373   -7.0043    2.8858 hq      1  lig       0.097816
     49 H_1c         14.4132   -5.6373    0.8604 hr      1  lig       0.128209
     50 H_1d         12.3738   -5.8192    3.1443 ht      1  lig       0.210908
     51 H_1e         11.9358   -7.9185    4.0054 hu      1  lig       0.101461
     52 H_1f         12.0658  -10.3743    3.8490 hv      1  lig       0.155245
     53 H_1g         12.9492  -11.4443    1.8028 hy      1  lig       0.146498
     54 H_1h         13.6945  -10.0591   -0.1044 hz      1  lig       0.153905
     55 H_1i         13.5566   -7.6057    0.0367 hA      1  lig       0.119869
     56 H_1j         10.7987   -5.9708    1.2887 hB      1  lig       0.340889
     57 H_1k          9.9449   -4.3656   -0.3156 hC      1  lig       0.159303
     58 H_1l         10.0342   -2.1354   -1.1967 hD      1  lig       0.201327
     59 H_1m         12.5901    1.8750   -0.1283 hE      1  lig       0.067529
     60 H_1n         13.7299    0.5873    0.1975 hF      1  lig       0.067529
     61 H_1o         12.3721    0.7011    1.1918 hG      1  lig       0.067529
     62 H_1p          9.7853   -0.0025   -0.2578 hH      1  lig       0.089172
     63 H_1q         10.0269   -0.0771   -1.9126 hI      1  lig       0.089172
     64 H_1r         10.3268    1.3824   -1.0970 hJ      1  lig       0.089172
     65 H_1s         12.6130    0.8052   -2.6352 hK      1  lig       0.055220
     66 H_1t         12.2275   -0.8945   -2.7357 hL      1  lig       0.055220
     67 H_1u         13.7202   -0.4120   -1.9978 hM      1  lig       0.055220
     68 H_1v         13.6877   -1.4191    0.9735 hN      1  lig       0.122035
     69 H_1w         14.9392   -3.4400    1.6016 hO      1  lig       0.123894
     70 H_1x         13.6941   -4.7009    6.2036 hP      1  lig       0.212522
@<TRIPOS>BOND
     1     1     2    1
     2     1    32    1
     3     1    33    1
     4     1    34    1
     5     2     3    1
     6     2    35    1
     7     2    36    1
     8     3     4    1
     9     3     7    1
    10     3    70    1
    11     4     5    1
    12     4    37    1
    13     4    38    1
    14     5     6    1
    15     5    39    1
    16     5    40    1
    17     6    41    1
    18     7     8    1
    19     7    42    1
    20     7    43    1
    21     8     9    1
    22     8    31    1
    23     8    44    1
    24     9    10    1
    25     9    45    1
    26     9    46    1
    27    10    11    1
    28    10    47    1
    29    10    48    1
    30    11    12    1
    31    11    30    1
    32    11    49    1
    33    12    13    1
    34    12    19    1
    35    12    50    1
    36    13    14    2
    37    13    18    1
    38    14    15    1
    39    14    51    1
    40    15    16    2
    41    15    52    1
    42    16    17    1
    43    16    53    1
    44    17    18    2
    45    17    54    1
    46    18    55    1
    47    19    20    1
    48    19    56    1
    49    20    21    2
    50    20    29    1
    51    21    22    1
    52    21    57    1
    53    22    23    2
    54    22    58    1
    55    23    24    1
    56    23    28    1
    57    24    25    1
    58    24    26    1
    59    24    27    1
    60    25    59    1
    61    25    60    1
    62    25    61    1
    63    26    62    1
    64    26    63    1
    65    26    64    1
    66    27    65    1
    67    27    66    1
    68    27    67    1
    69    28    29    2
    70    28    68    1
    71    29    30    1
    72    30    31    1
    73    30    69    1
