@<TRIPOS>MOLECULE
lig
  61   64 0 0 0
SMALL
NO_CHARGES


@<TRIPOS>ATOM
      1 O_00         16.4467   -4.4109    7.4249 o0      1  lig      -0.583003
      2 C_01         15.2351   -4.6139    7.4730 c4      1  lig       0.711973
      3 N_02         14.6650   -5.5529    8.2387 n0      1  lig      -0.360661
      4 C_03         15.3869   -6.4361    9.1585 c5      1  lig       0.065102
      5 C_04         15.2668   -6.0328   10.6455 c6      1  lig      -0.010909
      6 C_05         13.8226   -5.9803   11.1627 c7      1  lig       0.109388
      7 O_06         13.1566   -4.8684   10.5881 o1      1  lig      -0.627100
      8 N_07         14.3343   -3.9820    6.7011 ng      1  lig      -0.623951
      9 C_08         14.6936   -3.0974    5.5864 c8      1  lig      -0.040751
     10 C_09         14.8991   -3.7794    4.2042 c9      1  lig       0.026464
     11 C_0a         15.0796   -5.3216    4.2396 cb      1  lig      -0.052509
     12 C_0b         15.2170   -5.9056    2.8282 ci      1  lig      -0.143884
     13 C_0c         14.0982   -5.4118    1.8834 cj      1  lig       0.018561
     14 C_0d         12.7071   -6.0676    2.1263 ck      1  lig       0.029901
     15 C_0e         12.7538   -7.5905    2.0348 cm      1  lig       0.000914
     16 C_0f         12.3222   -8.3753    3.1056 cn      1  lig      -0.045972
     17 C_0g         12.3985   -9.7635    3.0200 co      1  lig      -0.187155
     18 C_0h         12.9019  -10.3648    1.8691 cq      1  lig      -0.129975
     19 C_0i         13.3224   -9.5891    0.7939 cr      1  lig      -0.169541
     20 C_0j         13.2458   -8.2037    0.8776 cs      1  lig      -0.107546
     21 N_0k         11.7300   -5.5199    1.1852 nr      1  lig      -0.579659
     22 C_0l         11.7894   -4.1781    0.7704 ct      1  lig       0.298989
     23 C_0m         10.7703   -3.7089   -0.0567 cw      1  lig      -0.283828
     24 C_0n         10.8105   -2.4059   -0.5418 cA      1  lig      -0.140159
     25 C_0o         11.8590   -1.5551   -0.1897 cB      1  lig      -0.056570
     26 C_0p         11.9086   -0.1381   -0.7474 cC      1  lig       0.554704
     27 F_0q         10.6756    0.3312   -0.9261 f0      1  lig      -0.209222
     28 F_0r         12.5656    0.6893    0.0654 f1      1  lig      -0.196083
     29 F_0s         12.5316   -0.1600   -1.9259 f2      1  lig      -0.210776
     30 C_0t         12.8601   -2.0232    0.6679 cD      1  lig      -0.207571
     31 C_0u         12.8600   -3.3430    1.1355 cE      1  lig      -0.006226
     32 C_0v         14.0117   -3.8696    1.9810 cF      1  lig      -0.011562
     33 O_0w         13.8055   -3.4605    3.3355 o2      1  lig      -0.286755
     34 H_0x         13.6582   -5.5705    8.3023 h0      1  lig       0.226371
     35 H_0y         14.9279   -7.4158    9.0362 h6      1  lig       0.024568
     36 H_0z         16.4371   -6.5451    8.8797 h7      1  lig       0.024568
     37 H_10         15.8294   -6.7485   11.2505 h8      1  lig       0.041246
     38 H_11         15.7509   -5.0717   10.8267 h9      1  lig       0.041246
     39 H_12         13.3103   -6.8986   10.8617 hb      1  lig       0.029397
     40 H_13         13.8037   -5.9486   12.2545 hd      1  lig       0.029397
     41 H_14         12.3548   -4.6854   11.0876 he      1  lig       0.420757
     42 H_15         13.3526   -4.1690    6.8347 hf      1  lig       0.345771
     43 H_16         13.9202   -2.3332    5.5075 hg      1  lig       0.104531
     44 H_17         15.5994   -2.5443    5.8485 hh      1  lig       0.104531
     45 H_18         15.8025   -3.3267    3.7880 hi      1  lig       0.070888
     46 H_19         15.9600   -5.5867    4.8260 hj      1  lig       0.065559
     47 H_1a         14.2304   -5.7872    4.7430 hk      1  lig       0.065559
     48 H_1b         16.1836   -5.6053    2.4186 hl      1  lig       0.055271
     49 H_1c         15.2476   -6.9928    2.8841 hm      1  lig       0.055271
     50 H_1d         14.4127   -5.6391    0.8639 hq      1  lig       0.077208
     51 H_1e         12.3723   -5.8162    3.1365 hr      1  lig       0.080832
     52 H_1f         11.9359   -7.9127    4.0028 ht      1  lig       0.097993
     53 H_1g         12.0683  -10.3720    3.8500 hu      1  lig       0.147809
     54 H_1h         12.9496  -11.4422    1.8040 hv      1  lig       0.137296
     55 H_1i         13.6904  -10.0586   -0.1062 hy      1  lig       0.142474
     56 H_1j         13.5615   -7.6046    0.0370 hz      1  lig       0.116050
     57 H_1k         10.9273   -6.1033    0.9966 hA      1  lig       0.339896
     58 H_1l          9.9481   -4.3512   -0.3337 hB      1  lig       0.156214
     59 H_1m         10.0229   -2.0607   -1.1956 hC      1  lig       0.171419
     60 H_1n         13.6834   -1.3760    0.9343 hD      1  lig       0.169973
     61 H_1o         14.9403   -3.4348    1.6035 hE      1  lig       0.113277
@<TRIPOS>BOND
     1     1     2    2
     2     2     3    1
     3     2     8    1
     4     3     4    1
     5     3    34    1
     6     4     5    1
     7     4    35    1
     8     4    36    1
     9     5     6    1
    10     5    37    1
    11     5    38    1
    12     6     7    1
    13     6    39    1
    14     6    40    1
    15     7    41    1
    16     8     9    1
    17     8    42    1
    18     9    10    1
    19     9    43    1
    20     9    44    1
    21    10    11    1
    22    10    33    1
    23    10    45    1
    24    11    12    1
    25    11    46    1
    26    11    47    1
    27    12    13    1
    28    12    48    1
    29    12    49    1
    30    13    14    1
    31    13    32    1
    32    13    50    1
    33    14    15    1
    34    14    21    1
    35    14    51    1
    36    15    16    2
    37    15    20    1
    38    16    17    1
    39    16    52    1
    40    17    18    2
    41    17    53    1
    42    18    19    1
    43    18    54    1
    44    19    20    2
    45    19    55    1
    46    20    56    1
    47    21    22    1
    48    21    57    1
    49    22    23    2
    50    22    31    1
    51    23    24    1
    52    23    58    1
    53    24    25    2
    54    24    59    1
    55    25    26    1
    56    25    30    1
    57    26    27    1
    58    26    28    1
    59    26    29    1
    60    30    31    2
    61    30    60    1
    62    31    32    1
    63    32    33    1
    64    32    61    1
