@<TRIPOS>MOLECULE
lig
  74   77 0 0 0
SMALL
NO_CHARGES


@<TRIPOS>ATOM
      1 C_00         11.3979   -0.1021   -2.1574 c4      1  lig      -0.193306
      2 C_01         11.9038   -0.1354   -0.7457 c5      1  lig       0.164921
      3 C_02         11.0501    0.7757    0.0856 c6      1  lig      -0.230857
      4 C_03         11.8578   -1.5536   -0.1865 c7      1  lig       0.034762
      5 C_04         10.8089   -2.4050   -0.5396 c8      1  lig      -0.202298
      6 C_05         10.7743   -3.7096   -0.0570 c9      1  lig      -0.259273
      7 C_06         11.7936   -4.1831    0.7614 cb      1  lig       0.238794
      8 C_07         12.8662   -3.3440    1.1312 ci      1  lig      -0.015535
      9 C_08         12.8594   -2.0221    0.6688 cj      1  lig      -0.241780
     10 C_09         14.0156   -3.8719    1.9779 ck      1  lig       0.003054
     11 O_0a         13.8095   -3.4697    3.3345 o0      1  lig      -0.297472
     12 C_0b         14.9090   -3.7899    4.1939 cm      1  lig       0.010724
     13 C_0c         14.7292   -3.0772    5.5493 cn      1  lig      -0.105754
     14 N_0d         14.3931   -3.9357    6.7113 n0      1  lig      -0.606481
     15 S_0e         15.6866   -4.1881    7.8512 s0      1  lig       0.965389
     16 O_0f         15.9605   -2.8994    8.4965 o1      1  lig      -0.514671
     17 O_0g         16.7692   -4.9053    7.1723 o2      1  lig      -0.537290
     18 C_0h         14.8572   -5.3740    9.0989 co      1  lig      -0.137904
     19 C_0i         15.9171   -5.9921   10.0050 cq      1  lig       0.006704
     20 C_0j         15.3040   -6.9172   11.0141 cr      1  lig      -0.100784
     21 N_0k         16.3536   -7.4832   11.8564 ng      1  lig      -0.046034
     22 C_0l         15.7569   -8.3836   12.8386 cs      1  lig      -0.328149
     23 C_0m         17.2969   -8.2258   11.0254 ct      1  lig      -0.260343
     24 C_0n         15.0802   -5.3264    4.2516 cw      1  lig      -0.029911
     25 C_0o         15.2184   -5.9103    2.8356 cA      1  lig      -0.174667
     26 C_0p         14.1038   -5.4145    1.8827 cB      1  lig       0.001520
     27 C_0q         12.7108   -6.0690    2.1214 cC      1  lig       0.006434
     28 C_0r         12.7593   -7.5926    2.0373 cD      1  lig       0.004421
     29 C_0s         13.2528   -8.2067    0.8813 cE      1  lig      -0.119031
     30 C_0t         13.3297   -9.5928    0.7978 cF      1  lig      -0.154706
     31 C_0u         12.9076  -10.3673    1.8725 cG      1  lig      -0.123490
     32 C_0v         12.4034   -9.7655    3.0228 cH      1  lig      -0.189584
     33 C_0w         12.3256   -8.3763    3.1078 cI      1  lig      -0.070930
     34 N_0x         11.7374   -5.5233    1.1763 nr      1  lig      -0.578898
     35 H_0y         12.0073   -0.7596   -2.7774 h0      1  lig       0.048124
     36 H_0z         11.4572    0.9166   -2.5407 h6      1  lig       0.048124
     37 H_10         10.3615   -0.4390   -2.1801 h7      1  lig       0.048124
     38 H_11         12.9225    0.2532   -0.7443 h8      1  lig       0.018387
     39 H_12         11.4035    0.7643    1.1166 h9      1  lig       0.053377
     40 H_13         10.0154    0.4346    0.0524 hb      1  lig       0.053377
     41 H_14         11.1110    1.7902   -0.3082 hd      1  lig       0.053377
     42 H_15         10.0204   -2.0579   -1.1913 he      1  lig       0.179393
     43 H_16          9.9573   -4.3549   -0.3431 hf      1  lig       0.153254
     44 H_17         13.6721   -1.3692    0.9509 hg      1  lig       0.142226
     45 H_18         14.9390   -3.4275    1.6025 hh      1  lig       0.116376
     46 H_19         15.8061   -3.3644    3.7393 hi      1  lig       0.097765
     47 H_1a         15.6460   -2.5318    5.7826 hj      1  lig       0.144242
     48 H_1b         13.9634   -2.3063    5.4584 hk      1  lig       0.144242
     49 H_1c         14.0645   -4.8324    6.3635 hl      1  lig       0.369805
     50 H_1d         14.1276   -4.7955    9.6643 hm      1  lig       0.096660
     51 H_1e         14.3350   -6.1477    8.5414 hq      1  lig       0.096660
     52 H_1f         16.6443   -6.5599    9.4232 hr      1  lig       0.048842
     53 H_1g         16.4626   -5.2168   10.5445 ht      1  lig       0.048842
     54 H_1h         14.5998   -6.3628   11.6345 hu      1  lig       0.131013
     55 H_1i         14.7790   -7.7211   10.4983 hv      1  lig       0.131013
     56 H_1j         15.2319   -9.1875   12.3228 hy      1  lig       0.174462
     57 H_1k         15.0527   -7.8292   13.4590 hz      1  lig       0.174462
     58 H_1l         16.5405   -8.8062   13.4674 hA      1  lig       0.174462
     59 H_1m         16.7719   -9.0297   10.5095 hB      1  lig       0.164657
     60 H_1n         18.0805   -8.6484   11.6542 hC      1  lig       0.164657
     61 H_1o         17.7424   -7.5536   10.2921 hD      1  lig       0.164657
     62 H_1p         15.9570   -5.5928    4.8416 hE      1  lig       0.059637
     63 H_1q         14.2182   -5.7833    4.7368 hF      1  lig       0.059637
     64 H_1r         16.1821   -5.6020    2.4289 hG      1  lig       0.070913
     65 H_1s         15.2502   -6.9993    2.8743 hH      1  lig       0.070913
     66 H_1t         14.4134   -5.6570    0.8656 hI      1  lig       0.101459
     67 H_1u         12.3692   -5.7931    3.1202 hJ      1  lig       0.151583
     68 H_1v         13.5722   -7.6049    0.0431 hK      1  lig       0.122850
     69 H_1w         13.7130  -10.0631   -0.0960 hL      1  lig       0.145528
     70 H_1x         12.9657  -11.4445    1.8120 hM      1  lig       0.138306
     71 H_1y         12.0728  -10.3765    3.8502 hN      1  lig       0.140195
     72 H_1z         11.9366   -7.9114    4.0019 hO      1  lig       0.103480
     73 H_20         10.9582   -6.1105    0.9179 hP      1  lig       0.340781
     74 H_21         16.8401   -6.7382   12.3344 hQ      1  lig       0.336563
@<TRIPOS>BOND
     1     1     2    1
     2     1    35    1
     3     1    36    1
     4     1    37    1
     5     2     3    1
     6     2     4    1
     7     2    38    1
     8     3    39    1
     9     3    40    1
    10     3    41    1
    11     4     5    2
    12     4     9    1
    13     5     6    1
    14     5    42    1
    15     6     7    2
    16     6    43    1
    17     7     8    1
    18     7    34    1
    19     8     9    2
    20     8    10    1
    21     9    44    1
    22    10    11    1
    23    10    26    1
    24    10    45    1
    25    11    12    1
    26    12    13    1
    27    12    24    1
    28    12    46    1
    29    13    14    1
    30    13    47    1
    31    13    48    1
    32    14    15    1
    33    14    49    1
    34    15    16    2
    35    15    17    2
    36    15    18    1
    37    18    19    1
    38    18    50    1
    39    18    51    1
    40    19    20    1
    41    19    52    1
    42    19    53    1
    43    20    21    1
    44    20    54    1
    45    20    55    1
    46    21    22    1
    47    21    23    1
    48    21    74    1
    49    22    56    1
    50    22    57    1
    51    22    58    1
    52    23    59    1
    53    23    60    1
    54    23    61    1
    55    24    25    1
    56    24    62    1
    57    24    63    1
    58    25    26    1
    59    25    64    1
    60    25    65    1
    61    26    27    1
    62    26    66    1
    63    27    28    1
    64    27    34    1
    65    27    67    1
    66    28    29    2
    67    28    33    1
    68    29    30    1
    69    29    68    1
    70    30    31    2
    71    30    69    1
    72    31    32    1
    73    31    70    1
    74    32    33    2
    75    32    71    1
    76    33    72    1
    77    34    73    1
