@<TRIPOS>MOLECULE
lig
  48   51 0 0 0
SMALL
NO_CHARGES


@<TRIPOS>ATOM
      1 C_00         12.7905    0.8113    0.0884 c4      1  lig      -0.175495
      2 C_01         11.9263   -0.1652   -0.7557 c5      1  lig       0.350117
      3 C_02         12.4938   -0.2209   -2.1702 c6      1  lig      -0.319758
      4 C_03         10.4639    0.3327   -0.8178 c7      1  lig      -0.198130
      5 C_04         11.8952   -1.5870   -0.1857 c8      1  lig      -0.002262
      6 C_05         10.8567   -2.4703   -0.5485 c9      1  lig      -0.223659
      7 C_06         10.8008   -3.7530   -0.0487 cb      1  lig      -0.266393
      8 C_07         11.8122   -4.2238    0.7871 ci      1  lig       0.296637
      9 C_08         12.8826   -3.3657    1.1452 cj      1  lig      -0.034126
     10 C_09         12.8768   -2.0583    0.6771 ck      1  lig      -0.227582
     11 C_0a         14.0286   -3.8762    1.9932 cm      1  lig       0.001195
     12 O_0b         13.8036   -3.4388    3.3367 o0      1  lig      -0.361492
     13 C_0c         14.8743   -3.7832    4.2226 cn      1  lig       0.034359
     14 C_0d         15.0676   -5.3199    4.2586 co      1  lig      -0.015502
     15 C_0e         15.2317   -5.8973    2.8508 cq      1  lig      -0.093431
     16 C_0f         14.1288   -5.4003    1.8929 cr      1  lig       0.001631
     17 C_0g         12.7338   -6.0798    2.1298 cs      1  lig       0.040713
     18 C_0h         12.7833   -7.5758    1.9513 ct      1  lig      -0.003728
     19 C_0i         13.3328   -8.2240    0.8368 cw      1  lig      -0.176367
     20 C_0j         13.3036   -9.5996    0.9042 cA      1  lig      -0.197226
     21 S_0k         12.5533  -10.1505    2.3594 s0      1  lig      -0.022471
     22 C_0l         12.2835   -8.5069    2.8549 cB      1  lig      -0.217339
     23 N_0m         11.7330   -5.5400    1.2141 n0      1  lig      -0.615500
     24 H_0n         12.8774    1.8196   -0.3202 h0      1  lig       0.035027
     25 H_0o         13.7853    0.3992    0.1623 h6      1  lig       0.035027
     26 H_0p         12.5316    0.8875    1.1493 h7      1  lig       0.035027
     27 H_0q         12.5396    0.7334   -2.7014 h8      1  lig       0.066390
     28 H_0r         11.8012   -0.8731   -2.7045 h9      1  lig       0.066390
     29 H_0s         13.4817   -0.6704   -2.2071 hb      1  lig       0.066390
     30 H_0t          9.7760   -0.2126   -1.4624 hd      1  lig       0.038104
     31 H_0u         10.2442    1.3554   -1.1064 he      1  lig       0.038104
     32 H_0v         10.1299    0.2315    0.2170 hf      1  lig       0.038104
     33 H_0w         10.0702   -2.1959   -1.2188 hg      1  lig       0.188986
     34 H_0x          9.9698   -4.3894   -0.3253 hh      1  lig       0.139332
     35 H_0y         13.7147   -1.4524    0.9854 hi      1  lig       0.165755
     36 H_0z         14.9578   -3.4374    1.6153 hj      1  lig       0.105257
     37 H_10         15.7930   -3.3245    3.8765 hk      1  lig       0.060140
     38 H_11         14.6628   -3.3951    5.2148 hl      1  lig       0.060140
     39 H_12         15.9430   -5.5641    4.8625 hm      1  lig       0.027350
     40 H_13         14.2109   -5.7763    4.7551 hq      1  lig       0.027350
     41 H_14         16.2014   -5.6107    2.4371 hr      1  lig       0.039818
     42 H_15         15.2555   -6.9840    2.9015 ht      1  lig       0.039818
     43 H_16         14.4523   -5.5955    0.8708 hu      1  lig       0.090750
     44 H_17         12.3885   -5.8052    3.1269 hv      1  lig       0.127555
     45 H_18         13.7581   -7.6897    0.0035 hy      1  lig       0.151293
     46 H_19         13.6812  -10.3029    0.1651 hz      1  lig       0.209910
     47 H_1a         11.7910   -8.3088    3.7910 hA      1  lig       0.209809
     48 H_1b         10.8761   -6.0660    1.1786 hB      1  lig       0.363983
@<TRIPOS>BOND
     1     1     2    1
     2     1    24    1
     3     1    25    1
     4     1    26    1
     5     2     3    1
     6     2     4    1
     7     2     5    1
     8     3    27    1
     9     3    28    1
    10     3    29    1
    11     4    30    1
    12     4    31    1
    13     4    32    1
    14     5     6    2
    15     5    10    1
    16     6     7    1
    17     6    33    1
    18     7     8    2
    19     7    34    1
    20     8     9    1
    21     8    23    1
    22     9    10    2
    23     9    11    1
    24    10    35    1
    25    11    12    1
    26    11    16    1
    27    11    36    1
    28    12    13    1
    29    13    14    1
    30    13    37    1
    31    13    38    1
    32    14    15    1
    33    14    39    1
    34    14    40    1
    35    15    16    1
    36    15    41    1
    37    15    42    1
    38    16    17    1
    39    16    43    1
    40    17    18    1
    41    17    23    1
    42    17    44    1
    43    18    19    1
    44    18    22    2
    45    19    20    2
    46    19    45    1
    47    20    21    1
    48    20    46    1
    49    21    22    1
    50    22    47    1
    51    23    48    1
