@<TRIPOS>MOLECULE
lig
  65   68 0 0 0
SMALL
NO_CHARGES


@<TRIPOS>ATOM
      1 C_00         16.7713   -6.3756   12.0443 c4      1  lig      -0.182553
      2 N_01         15.7514   -7.3133   11.3477 n0      1  lig      -0.034476
      3 C_02         14.9672   -8.1032   12.4119 c5      1  lig      -0.317105
      4 C_03         14.7574   -6.5424   10.4444 c6      1  lig      -0.156690
      5 C_04         15.5368   -5.7840    9.4103 c7      1  lig       0.098250
      6 O_05         14.7381   -5.4520    8.2799 o0      1  lig      -0.433986
      7 C_06         15.2652   -4.5977    7.4117 c8      1  lig       0.751133
      8 O_07         16.5030   -4.3780    7.3160 o1      1  lig      -0.529112
      9 N_08         14.3099   -3.9820    6.6658 ng      1  lig      -0.512308
     10 C_09         14.6677   -3.0872    5.5706 c9      1  lig      -0.063942
     11 C_0a         14.8962   -3.7746    4.1958 cb      1  lig       0.031990
     12 C_0b         15.0805   -5.3187    4.2370 ci      1  lig       0.121033
     13 C_0c         15.2182   -5.9065    2.8281 cj      1  lig      -0.238779
     14 C_0d         14.1002   -5.4125    1.8825 ck      1  lig      -0.014802
     15 C_0e         12.7104   -6.0683    2.1249 cm      1  lig       0.002381
     16 C_0f         12.7572   -7.5912    2.0353 cn      1  lig       0.014665
     17 C_0g         12.3235   -8.3758    3.1056 co      1  lig      -0.002406
     18 C_0h         12.4000   -9.7638    3.0213 cq      1  lig      -0.149891
     19 C_0i         12.9028  -10.3655    1.8703 cr      1  lig      -0.136158
     20 C_0j         13.3226   -9.5904    0.7944 cs      1  lig      -0.176755
     21 C_0k         13.2483   -8.2048    0.8778 ct      1  lig      -0.041568
     22 N_0l         11.7296   -5.5214    1.1862 nr      1  lig      -0.449938
     23 C_0m         11.7939   -4.1799    0.7662 cw      1  lig       0.138473
     24 C_0n         10.7709   -3.7099   -0.0572 cA      1  lig      -0.238250
     25 C_0o         10.8098   -2.4057   -0.5391 cB      1  lig      -0.127467
     26 C_0p         11.8576   -1.5528   -0.1908 cC      1  lig      -0.040637
     27 C_0q         11.9120   -0.1390   -0.7465 cD      1  lig       0.526042
     28 F_0r         10.6726    0.3357   -0.9277 f0      1  lig      -0.193170
     29 F_0s         12.5628    0.6909    0.0665 f1      1  lig      -0.182853
     30 F_0t         12.5294   -0.1587   -1.9235 f2      1  lig      -0.190758
     31 C_0u         12.8610   -2.0226    0.6675 cE      1  lig      -0.169664
     32 C_0v         12.8607   -3.3461    1.1326 cF      1  lig       0.022309
     33 C_0w         14.0132   -3.8683    1.9789 cG      1  lig      -0.014556
     34 O_0x         13.8046   -3.4607    3.3297 o2      1  lig      -0.299627
     35 H_0y         16.1866   -5.6689   12.6268 h0      1  lig       0.142637
     36 H_0z         17.3506   -5.8769   11.2816 h6      1  lig       0.142637
     37 H_10         17.4106   -6.9779   12.6615 h7      1  lig       0.142637
     38 H_11         14.4470   -7.3620   12.9985 h8      1  lig       0.156576
     39 H_12         15.6920   -8.6413   13.0058 h9      1  lig       0.156576
     40 H_13         14.2920   -8.7629   11.8873 hb      1  lig       0.156576
     41 H_14         14.1090   -7.2702    9.9857 hd      1  lig       0.155230
     42 H_15         14.1835   -5.9006   11.1076 he      1  lig       0.155230
     43 H_16         15.9172   -4.8470    9.8432 hf      1  lig       0.091251
     44 H_17         16.3874   -6.3647    9.0642 hg      1  lig       0.091251
     45 H_18         13.3335   -4.2030    6.8284 hh      1  lig       0.329047
     46 H_19         13.9024   -2.3150    5.4890 hi      1  lig       0.121681
     47 H_1a         15.5773   -2.5399    5.8417 hj      1  lig       0.121681
     48 H_1b         15.8009   -3.3231    3.7840 hk      1  lig       0.085879
     49 H_1c         15.9617   -5.5860    4.8205 hl      1  lig      -0.005338
     50 H_1d         14.2325   -5.7873    4.7380 hm      1  lig      -0.005338
     51 H_1e         16.1842   -5.6070    2.4181 hq      1  lig       0.083781
     52 H_1f         15.2471   -6.9941    2.8842 hr      1  lig       0.083781
     53 H_1g         14.4141   -5.6391    0.8636 ht      1  lig       0.090853
     54 H_1h         12.3709   -5.8147    3.1322 hu      1  lig       0.146098
     55 H_1i         11.9359   -7.9140    4.0022 hv      1  lig       0.088711
     56 H_1j         12.0685  -10.3734    3.8509 hy      1  lig       0.134007
     57 H_1k         12.9503  -11.4423    1.8044 hz      1  lig       0.155985
     58 H_1l         13.6920  -10.0586   -0.1044 hA      1  lig       0.164692
     59 H_1m         13.5628   -7.6049    0.0369 hB      1  lig       0.101602
     60 H_1n         10.9190   -6.0992    1.0077 hC      1  lig       0.284803
     61 H_1o          9.9498   -4.3509   -0.3344 hD      1  lig       0.150791
     62 H_1p         10.0227   -2.0600   -1.1958 hE      1  lig       0.177332
     63 H_1q         13.6823   -1.3748    0.9343 hF      1  lig       0.164727
     64 H_1r         14.9410   -3.4338    1.6028 hG      1  lig       0.130068
     65 H_1s         16.2598   -7.9645   10.7739 hH      1  lig       0.195731
@<TRIPOS>BOND
     1     1     2    1
     2     1    35    1
     3     1    36    1
     4     1    37    1
     5     2     3    1
     6     2     4    1
     7     2    65    1
     8     3    38    1
     9     3    39    1
    10     3    40    1
    11     4     5    1
    12     4    41    1
    13     4    42    1
    14     5     6    1
    15     5    43    1
    16     5    44    1
    17     6     7    1
    18     7     8    2
    19     7     9    1
    20     9    10    1
    21     9    45    1
    22    10    11    1
    23    10    46    1
    24    10    47    1
    25    11    12    1
    26    11    34    1
    27    11    48    1
    28    12    13    1
    29    12    49    1
    30    12    50    1
    31    13    14    1
    32    13    51    1
    33    13    52    1
    34    14    15    1
    35    14    33    1
    36    14    53    1
    37    15    16    1
    38    15    22    1
    39    15    54    1
    40    16    17    2
    41    16    21    1
    42    17    18    1
    43    17    55    1
    44    18    19    2
    45    18    56    1
    46    19    20    1
    47    19    57    1
    48    20    21    2
    49    20    58    1
    50    21    59    1
    51    22    23    1
    52    22    60    1
    53    23    24    2
    54    23    32    1
    55    24    25    1
    56    24    61    1
    57    25    26    2
    58    25    62    1
    59    26    27    1
    60    26    31    1
    61    27    28    1
    62    27    29    1
    63    27    30    1
    64    31    32    2
    65    31    63    1
    66    32    33    1
    67    33    34    1
    68    33    64    1
