@<TRIPOS>MOLECULE
lig
  64   67 0 0 0
SMALL
NO_CHARGES


@<TRIPOS>ATOM
      1 C_00         14.6834   -7.3008   11.7225 c4      1  lig      -0.143180
      2 N_01         15.2774   -5.9316   11.3172 n0      1  lig       0.052859
      3 C_02         15.9300   -5.2530   12.5352 c5      1  lig      -0.073206
      4 C_03         16.2923   -6.0375   10.1526 c6      1  lig      -0.022414
      5 C_04         15.5993   -6.5692    8.8893 c7      1  lig      -0.030345
      6 C_05         14.5542   -5.5430    8.4001 c8      1  lig      -0.045077
      7 C_06         15.1836   -4.5449    7.4457 c9      1  lig       0.470516
      8 O_07         16.3859   -4.3594    7.3886 o0      1  lig      -0.521369
      9 N_08         14.2892   -3.9272    6.6441 ng      1  lig      -0.479856
     10 C_09         14.6882   -3.0589    5.5552 cb      1  lig      -0.047460
     11 C_0a         14.9040   -3.7684    4.1917 ci      1  lig       0.008097
     12 C_0b         15.0828   -5.3154    4.2390 cj      1  lig      -0.078485
     13 C_0c         15.2204   -5.9077    2.8305 ck      1  lig      -0.093291
     14 C_0d         14.1059   -5.4133    1.8829 cm      1  lig       0.003382
     15 C_0e         12.7128   -6.0662    2.1226 cn      1  lig      -0.010124
     16 C_0f         12.7576   -7.5912    2.0355 co      1  lig       0.005525
     17 C_0g         12.3242   -8.3770    3.1068 cq      1  lig      -0.139751
     18 C_0h         12.4016   -9.7648    3.0219 cr      1  lig      -0.145911
     19 C_0i         12.9059  -10.3676    1.8713 cs      1  lig      -0.118912
     20 C_0j         13.3272   -9.5913    0.7967 ct      1  lig      -0.159060
     21 C_0k         13.2504   -8.2070    0.8802 cw      1  lig      -0.097757
     22 N_0l         11.7486   -5.5145    1.1710 nr      1  lig      -0.382433
     23 C_0m         11.8124   -4.1554    0.7867 cA      1  lig       0.083967
     24 C_0n         10.7992   -3.6430   -0.0245 cB      1  lig       0.145370
     25 F_0o          9.7452   -4.3940   -0.3088 f0      1  lig      -0.186921
     26 C_0p         10.8386   -2.3622   -0.5273 cC      1  lig      -0.025578
     27 C_0q         11.8857   -1.5286   -0.1663 cD      1  lig      -0.194381
     28 Br0r         11.9570    0.2431   -0.8266 a0      1  lig      -0.036747
     29 C_0s         12.8902   -2.0069    0.6804 cE      1  lig      -0.097251
     30 C_0t         12.8881   -3.3301    1.1337 cF      1  lig       0.003422
     31 C_0u         14.0302   -3.8699    1.9787 cG      1  lig       0.014249
     32 O_0v         13.8099   -3.4603    3.3270 o1      1  lig      -0.277526
     33 H_0w         15.5394   -7.9357   11.9678 h0      1  lig       0.105557
     34 H_0x         14.1006   -7.7185   10.9004 h6      1  lig       0.105557
     35 H_0y         14.0029   -7.1559   12.5615 h7      1  lig       0.105557
     36 H_0z         16.7606   -5.9038   12.8225 h8      1  lig       0.084840
     37 H_10         15.1664   -5.1905   13.3147 h9      1  lig       0.084840
     38 H_11         16.2746   -4.2620   12.2253 hb      1  lig       0.084840
     39 H_12         16.6811   -5.0218    9.9915 hd      1  lig       0.055413
     40 H_13         17.1086   -6.6770   10.4988 he      1  lig       0.055413
     41 H_14         16.3506   -6.8049    8.1366 hf      1  lig       0.044738
     42 H_15         15.1239   -7.5412    9.0226 hg      1  lig       0.044738
     43 H_16         13.7453   -6.0592    7.8902 hh      1  lig       0.052772
     44 H_17         14.0786   -4.9761    9.2045 hi      1  lig       0.052772
     45 H_18         13.3183   -4.1244    6.7845 hj      1  lig       0.345834
     46 H_19         13.9105   -2.3007    5.4765 hk      1  lig       0.117989
     47 H_1a         15.5982   -2.5169    5.8278 hl      1  lig       0.117989
     48 H_1b         15.8080   -3.3177    3.7778 hm      1  lig       0.102117
     49 H_1c         15.9629   -5.5825    4.8242 hq      1  lig       0.059850
     50 H_1d         14.2348   -5.7823    4.7443 hr      1  lig       0.059850
     51 H_1e         16.1869   -5.6111    2.4180 ht      1  lig       0.057424
     52 H_1f         15.2476   -6.9947    2.8898 hu      1  lig       0.057424
     53 H_1g         14.4209   -5.6382    0.8628 hv      1  lig       0.085982
     54 H_1h         12.3657   -5.8150    3.1282 hy      1  lig       0.122582
     55 H_1i         11.9332   -7.9157    4.0028 hz      1  lig       0.123208
     56 H_1j         12.0690  -10.3741    3.8509 hA      1  lig       0.147770
     57 H_1k         12.9502  -11.4447    1.8040 hB      1  lig       0.147814
     58 H_1l         13.6941  -10.0604   -0.1045 hC      1  lig       0.154823
     59 H_1m         13.5641   -7.6077    0.0384 hD      1  lig       0.108923
     60 H_1n         10.9203   -6.0734    1.0265 hE      1  lig       0.303489
     61 H_1o         10.0428   -2.0189   -1.1799 hF      1  lig       0.147252
     62 H_1p         13.7007   -1.3465    0.9386 hG      1  lig       0.153620
     63 H_1q         14.9571   -3.4356    1.6023 hH      1  lig       0.094581
     64 H_1r         14.5055   -5.3295   11.0089 hI      1  lig       0.234090
@<TRIPOS>BOND
     1     1     2    1
     2     1    33    1
     3     1    34    1
     4     1    35    1
     5     2     3    1
     6     2     4    1
     7     2    64    1
     8     3    36    1
     9     3    37    1
    10     3    38    1
    11     4     5    1
    12     4    39    1
    13     4    40    1
    14     5     6    1
    15     5    41    1
    16     5    42    1
    17     6     7    1
    18     6    43    1
    19     6    44    1
    20     7     8    2
    21     7     9    1
    22     9    10    1
    23     9    45    1
    24    10    11    1
    25    10    46    1
    26    10    47    1
    27    11    12    1
    28    11    32    1
    29    11    48    1
    30    12    13    1
    31    12    49    1
    32    12    50    1
    33    13    14    1
    34    13    51    1
    35    13    52    1
    36    14    15    1
    37    14    31    1
    38    14    53    1
    39    15    16    1
    40    15    22    1
    41    15    54    1
    42    16    17    2
    43    16    21    1
    44    17    18    1
    45    17    55    1
    46    18    19    2
    47    18    56    1
    48    19    20    1
    49    19    57    1
    50    20    21    2
    51    20    58    1
    52    21    59    1
    53    22    23    1
    54    22    60    1
    55    23    24    2
    56    23    30    1
    57    24    25    1
    58    24    26    1
    59    26    27    2
    60    26    61    1
    61    27    28    1
    62    27    29    1
    63    29    30    2
    64    29    62    1
    65    30    31    1
    66    31    32    1
    67    31    63    1
