@<TRIPOS>MOLECULE
lig
  51   55 0 0 0
SMALL
NO_CHARGES


@<TRIPOS>ATOM
      1 F_00         10.6683    0.3259   -0.9315 f0      1  lig      -0.198372
      2 C_01         11.9092   -0.1373   -0.7426 c4      1  lig       0.530031
      3 F_02         12.5572    0.6970    0.0708 f1      1  lig      -0.191184
      4 F_03         12.5317   -0.1562   -1.9180 f2      1  lig      -0.211572
      5 C_04         11.8546   -1.5518   -0.1871 c5      1  lig      -0.050297
      6 C_05         10.8042   -2.4028   -0.5323 c6      1  lig      -0.138311
      7 C_06         10.7730   -3.7099   -0.0542 c7      1  lig      -0.274371
      8 C_07         11.8144   -4.1935    0.7396 c8      1  lig       0.309384
      9 C_08         12.8923   -3.3560    1.0946 c9      1  lig      -0.014858
     10 C_09         12.8665   -2.0258    0.6545 cb      1  lig      -0.188008
     11 C_0a         14.0494   -3.8568    1.9562 ci      1  lig       0.004886
     12 O_0b         13.8553   -3.4173    3.2710 o0      1  lig      -0.323205
     13 C_0c         14.8976   -3.7605    4.1929 cj      1  lig       0.090821
     14 C_0d         14.6578   -3.1005    5.5680 ck      1  lig      -0.116133
     15 N_0e         13.2465   -2.9226    5.9121 n0      1  lig       0.130109
     16 C_0f         12.6204   -3.1518    7.1038 cm      1  lig       0.254868
     17 N_0g         11.3473   -2.8639    7.0012 ng      1  lig      -0.629553
     18 C_0h         11.2559   -2.4452    5.7470 cn      1  lig       0.397240
     19 N_0i         12.3327   -2.4354    5.0401 nr      1  lig      -0.504637
     20 C_0j         15.0684   -5.3101    4.2439 co      1  lig      -0.051410
     21 C_0k         15.2209   -5.9171    2.8316 cq      1  lig      -0.100396
     22 C_0l         14.1192   -5.4200    1.8687 cr      1  lig      -0.005773
     23 C_0m         12.7212   -6.0707    2.1169 cs      1  lig       0.038174
     24 C_0n         12.7592   -7.5954    2.0346 ct      1  lig      -0.011124
     25 C_0o         12.3228   -8.3777    3.1055 cw      1  lig      -0.074229
     26 C_0p         12.4048   -9.7653    3.0253 cA      1  lig      -0.160747
     27 C_0q         12.9049  -10.3677    1.8739 cB      1  lig      -0.146570
     28 C_0r         13.3264   -9.5938    0.7972 cC      1  lig      -0.145135
     29 C_0s         13.2517   -8.2084    0.8785 cD      1  lig      -0.117167
     30 N_0t         11.7331   -5.5251    1.1808 nw      1  lig      -0.622718
     31 H_0u         10.0213   -2.0601   -1.1960 h0      1  lig       0.171360
     32 H_0v          9.9490   -4.3496   -0.3314 h6      1  lig       0.155286
     33 H_0w         13.6823   -1.3752    0.9329 h7      1  lig       0.170326
     34 H_0x         14.9905   -3.4672    1.5172 h8      1  lig       0.103313
     35 H_0y         15.8414   -3.3531    3.8085 h9      1  lig       0.086434
     36 H_0z         15.1289   -3.6931    6.3577 hb      1  lig       0.099489
     37 H_10         15.1239   -2.1134    5.5876 hd      1  lig       0.099489
     38 H_11         13.1580   -3.5076    7.9813 he      1  lig       0.131430
     39 H_12         10.2992   -2.1530    5.3209 hf      1  lig       0.104430
     40 H_13         15.9422   -5.5750    4.8418 hg      1  lig       0.022930
     41 H_14         14.2208   -5.7508    4.7597 hh      1  lig       0.022930
     42 H_15         16.1877   -5.6158    2.4310 hi      1  lig       0.046548
     43 H_16         15.2476   -7.0045    2.9003 hj      1  lig       0.046548
     44 H_17         14.4309   -5.6815    0.8489 hk      1  lig       0.092487
     45 H_18         12.3740   -5.8074    3.1180 hl      1  lig       0.164029
     46 H_19         11.9307   -7.9163    4.0008 hm      1  lig       0.097657
     47 H_1a         12.0690  -10.3755    3.8528 hq      1  lig       0.144601
     48 H_1b         12.9609  -11.4432    1.8091 hr      1  lig       0.141037
     49 H_1c         13.6968  -10.0592   -0.1007 ht      1  lig       0.138475
     50 H_1d         13.5613   -7.6079    0.0375 hu      1  lig       0.121001
     51 H_1e         10.8982   -6.0840    1.0444 hv      1  lig       0.360457
@<TRIPOS>BOND
     1     1     2    1
     2     2     3    1
     3     2     4    1
     4     2     5    1
     5     5     6    2
     6     5    10    1
     7     6     7    1
     8     6    31    1
     9     7     8    2
    10     7    32    1
    11     8     9    1
    12     8    30    1
    13     9    10    2
    14     9    11    1
    15    10    33    1
    16    11    12    1
    17    11    22    1
    18    11    34    1
    19    12    13    1
    20    13    14    1
    21    13    20    1
    22    13    35    1
    23    14    15    1
    24    14    36    1
    25    14    37    1
    26    15    16    1
    27    15    19    1
    28    16    17    2
    29    16    38    1
    30    17    18    1
    31    18    19    2
    32    18    39    1
    33    20    21    1
    34    20    40    1
    35    20    41    1
    36    21    22    1
    37    21    42    1
    38    21    43    1
    39    22    23    1
    40    22    44    1
    41    23    24    1
    42    23    30    1
    43    23    45    1
    44    24    25    2
    45    24    29    1
    46    25    26    1
    47    25    46    1
    48    26    27    2
    49    26    47    1
    50    27    28    1
    51    27    48    1
    52    28    29    2
    53    28    49    1
    54    29    50    1
    55    30    51    1
