@<TRIPOS>MOLECULE
lig
  71   75 0 0 0
SMALL
NO_CHARGES


@<TRIPOS>ATOM
      1 C_00         20.4061   -3.7657    7.9254 c4      1  lig      -0.174757
      2 C_01         18.9124   -3.9931    7.7765 c5      1  lig       0.135774
      3 C_02         18.0258   -2.9250    7.9026 c6      1  lig      -0.233757
      4 C_03         16.6577   -3.1320    7.7478 c7      1  lig      -0.097295
      5 C_04         16.1648   -4.4081    7.4449 c8      1  lig       0.026016
      6 C_05         14.6878   -4.6643    7.2329 c9      1  lig       0.480611
      7 O_06         14.1939   -5.6634    7.7631 o0      1  lig      -0.514786
      8 N_07         13.9487   -3.8243    6.4460 n0      1  lig      -0.289126
      9 C_08         12.4795   -4.0242    6.4012 cb      1  lig      -0.016476
     10 C_09         11.6019   -2.8223    6.0038 ci      1  lig      -0.019680
     11 N_0a         11.3321   -2.8831    4.4934 ng      1  lig      -0.030650
     12 C_0b         14.5613   -2.9978    5.3800 cj      1  lig      -0.041241
     13 C_0c         14.7961   -3.6692    4.0001 ck      1  lig       0.020513
     14 C_0d         15.0811   -5.1931    4.0309 cm      1  lig       0.000497
     15 C_0e         15.2403   -5.7746    2.6172 cn      1  lig      -0.234578
     16 C_0f         14.1077   -5.3260    1.6628 co      1  lig      -0.002676
     17 C_0g         12.7413   -6.0318    1.9021 cq      1  lig      -0.005356
     18 C_0h         12.8422   -7.5568    1.8513 cr      1  lig      -0.002423
     19 C_0i         12.4533   -8.3229    2.9526 cs      1  lig      -0.049739
     20 C_0j         12.5253   -9.7125    2.8926 ct      1  lig      -0.175901
     21 C_0k         12.9477  -10.3381    1.7271 cw      1  lig      -0.123148
     22 C_0l         13.3353   -9.5811    0.6254 cA      1  lig      -0.147327
     23 C_0m         13.3108   -8.1934    0.6978 cB      1  lig      -0.130479
     24 N_0n         11.7319   -5.5273    0.9660 nr      1  lig      -0.486372
     25 C_0o         11.7370   -4.1806    0.5580 cC      1  lig       0.194905
     26 C_0p         10.6892   -3.7238   -0.2418 cD      1  lig      -0.192923
     27 C_0q         10.6688   -2.4058   -0.6876 cE      1  lig      -0.147308
     28 C_0r         11.6907   -1.5255   -0.3218 cF      1  lig      -0.038733
     29 C_0s         11.7117   -0.0976   -0.8567 cG      1  lig       0.473777
     30 F_0t         12.2908    0.7357    0.0080 f0      1  lig      -0.221780
     31 F_0u         12.4102   -0.0772   -1.9917 f1      1  lig      -0.149567
     32 F_0v         10.4766    0.3334   -1.1054 f2      1  lig      -0.146473
     33 C_0w         12.7176   -1.9787    0.5071 cH      1  lig      -0.188778
     34 C_0x         12.7770   -3.3077    0.9323 cI      1  lig       0.010282
     35 C_0y         13.9477   -3.7906    1.7717 cJ      1  lig      -0.010852
     36 O_0z         13.6969   -3.4009    3.1267 o1      1  lig      -0.279675
     37 C_10         17.0605   -5.4838    7.3765 cK      1  lig      -0.203673
     38 C_11         18.4268   -5.2802    7.5326 cL      1  lig      -0.156389
     39 H_12         20.8966   -4.6385    8.3533 h0      1  lig       0.072395
     40 H_13         20.6157   -2.9273    8.5942 h6      1  lig       0.072395
     41 H_14         20.8541   -3.5552    6.9542 h7      1  lig       0.072395
     42 H_15         18.3892   -1.9293    8.1145 h8      1  lig       0.166905
     43 H_16         15.9889   -2.2922    7.8543 h9      1  lig       0.115795
     44 H_17         12.2659   -4.8647    5.7368 hb      1  lig       0.081099
     45 H_18         12.1472   -4.3462    7.3894 hd      1  lig       0.081099
     46 H_19         10.6031   -2.8770    6.4480 he      1  lig       0.104432
     47 H_1a         12.0431   -1.8456    6.2206 hf      1  lig       0.104432
     48 H_1b         10.7298   -2.1320    4.1414 hg      1  lig       0.186778
     49 H_1c         10.8553   -3.7530    4.2874 hh      1  lig       0.186778
     50 H_1d         13.9811   -2.0922    5.2324 hi      1  lig       0.078268
     51 H_1e         15.5298   -2.6261    5.6945 hj      1  lig       0.078268
     52 H_1f         15.6700   -3.1564    3.5927 hk      1  lig       0.096777
     53 H_1g         15.9914   -5.3897    4.6001 hl      1  lig       0.047365
     54 H_1h         14.2785   -5.7188    4.5518 hm      1  lig       0.047365
     55 H_1i         16.1963   -5.4430    2.2066 hq      1  lig       0.099053
     56 H_1j         15.3123   -6.8623    2.6711 hr      1  lig       0.099053
     57 H_1k         14.4375   -5.5427    0.6447 ht      1  lig       0.106311
     58 H_1l         12.3821   -5.7716    2.9017 hu      1  lig       0.143255
     59 H_1m         12.0964   -7.8495    3.8566 hv      1  lig       0.090937
     60 H_1n         12.2295  -10.3081    3.7462 hy      1  lig       0.157818
     61 H_1o         12.9787  -11.4176    1.6762 hz      1  lig       0.151757
     62 H_1p         13.6722  -10.0595   -0.2817 hA      1  lig       0.154443
     63 H_1q         13.6137   -7.6139   -0.1606 hB      1  lig       0.125603
     64 H_1r         10.8780   -6.0664    0.9477 hC      1  lig       0.330037
     65 H_1s          9.8977   -4.3963   -0.5354 hD      1  lig       0.158590
     66 H_1t          9.8632   -2.0699   -1.3224 hE      1  lig       0.173187
     67 H_1u         13.5136   -1.3007    0.7868 hF      1  lig       0.147561
     68 H_1v         14.8593   -3.3099    1.4053 hG      1  lig       0.126193
     69 H_1w         16.7009   -6.4861    7.1830 hH      1  lig       0.178832
     70 H_1x         19.1055   -6.1201    7.4605 hI      1  lig       0.147589
     71 H_1y         12.1955   -2.8872    3.9543 hJ      1  lig       0.186778
@<TRIPOS>BOND
     1     1     2    1
     2     1    39    1
     3     1    40    1
     4     1    41    1
     5     2     3    2
     6     2    38    1
     7     3     4    1
     8     3    42    1
     9     4     5    2
    10     4    43    1
    11     5     6    1
    12     5    37    1
    13     6     7    2
    14     6     8    1
    15     8     9    1
    16     8    12    1
    17     9    10    1
    18     9    44    1
    19     9    45    1
    20    10    11    1
    21    10    46    1
    22    10    47    1
    23    11    48    1
    24    11    49    1
    25    11    71    1
    26    12    13    1
    27    12    50    1
    28    12    51    1
    29    13    14    1
    30    13    36    1
    31    13    52    1
    32    14    15    1
    33    14    53    1
    34    14    54    1
    35    15    16    1
    36    15    55    1
    37    15    56    1
    38    16    17    1
    39    16    35    1
    40    16    57    1
    41    17    18    1
    42    17    24    1
    43    17    58    1
    44    18    19    2
    45    18    23    1
    46    19    20    1
    47    19    59    1
    48    20    21    2
    49    20    60    1
    50    21    22    1
    51    21    61    1
    52    22    23    2
    53    22    62    1
    54    23    63    1
    55    24    25    1
    56    24    64    1
    57    25    26    2
    58    25    34    1
    59    26    27    1
    60    26    65    1
    61    27    28    2
    62    27    66    1
    63    28    29    1
    64    28    33    1
    65    29    30    1
    66    29    31    1
    67    29    32    1
    68    33    34    2
    69    33    67    1
    70    34    35    1
    71    35    36    1
    72    35    68    1
    73    37    38    2
    74    37    69    1
    75    38    70    1
