@<TRIPOS>MOLECULE
lig
  51   54 0 0 0
SMALL
NO_CHARGES


@<TRIPOS>ATOM
      1 C_00         12.8440    0.7919    0.0923 c4      1  lig      -0.174670
      2 C_01         11.9510   -0.1740   -0.7292 c5      1  lig       0.351570
      3 C_02         10.5043    0.3281   -0.7907 c6      1  lig      -0.204665
      4 C_03         12.4899   -0.2213   -2.1417 c7      1  lig      -0.315356
      5 C_04         11.8886   -1.5912   -0.1659 c8      1  lig      -0.003136
      6 C_05         10.8674   -2.4721   -0.5416 c9      1  lig      -0.224406
      7 C_06         10.7974   -3.7635   -0.0404 cb      1  lig      -0.269123
      8 C_07         11.8031   -4.2332    0.7903 ci      1  lig       0.287439
      9 C_08         12.8759   -3.4004    1.1456 cj      1  lig      -0.029902
     10 C_09         12.8695   -2.0850    0.7008 ck      1  lig      -0.234100
     11 C_0a         14.0244   -3.9056    1.9931 cm      1  lig       0.019316
     12 O_0b         13.7945   -3.4603    3.3342 o0      1  lig      -0.371162
     13 C_0c         14.8679   -3.7921    4.2158 cn      1  lig       0.034969
     14 C_0d         15.0733   -5.3223    4.2605 co      1  lig      -0.028172
     15 C_0e         15.2307   -5.9110    2.8490 cq      1  lig      -0.088515
     16 C_0f         14.1153   -5.4365    1.8937 cr      1  lig      -0.008243
     17 C_0g         12.7183   -6.0874    2.1403 cs      1  lig       0.054585
     18 C_0h         12.7673   -7.6067    2.0472 ct      1  lig       0.021032
     19 C_0i         12.3297   -8.3923    3.1162 cw      1  lig      -0.134016
     20 C_0j         12.4058   -9.7806    3.0303 cA      1  lig      -0.153389
     21 C_0k         12.9252  -10.3773    1.8827 cB      1  lig      -0.137394
     22 C_0l         13.3326   -9.5998    0.8058 cC      1  lig      -0.164634
     23 C_0m         13.2534   -8.2136    0.8875 cD      1  lig      -0.097368
     24 N_0n         11.7244   -5.5627    1.2182 n0      1  lig      -0.605016
     25 H_0o         12.9419    1.8039   -0.3195 h0      1  lig       0.034427
     26 H_0p         13.8412    0.3849    0.0936 h6      1  lig       0.034427
     27 H_0q         12.5513    0.8599    1.1381 h7      1  lig       0.034427
     28 H_0r         10.1585    0.2508    0.1995 h8      1  lig       0.039893
     29 H_0s          9.8173   -0.1840   -1.4404 h9      1  lig       0.039893
     30 H_0t         10.2881    1.3288   -1.0813 hb      1  lig       0.039893
     31 H_0u         12.7546    0.7362   -2.5815 hd      1  lig       0.065533
     32 H_0v         11.6835   -0.6584   -2.7076 he      1  lig       0.065533
     33 H_0w         13.3441   -0.8652   -2.2592 hf      1  lig       0.065533
     34 H_0x         10.0789   -2.1827   -1.2109 hg      1  lig       0.187052
     35 H_0y          9.9625   -4.3964   -0.3281 hh      1  lig       0.145960
     36 H_0z         13.7124   -1.5054    1.0214 hi      1  lig       0.168545
     37 H_10         14.9481   -3.4636    1.6062 hj      1  lig       0.102076
     38 H_11         15.7885   -3.3233    3.8717 hk      1  lig       0.059906
     39 H_12         14.6565   -3.4018    5.2084 hl      1  lig       0.059906
     40 H_13         15.9488   -5.5615    4.8654 hm      1  lig       0.033782
     41 H_14         14.2172   -5.7782    4.7576 hq      1  lig       0.033782
     42 H_15         16.1993   -5.6154    2.4368 hr      1  lig       0.036372
     43 H_16         15.2605   -6.9979    2.9035 ht      1  lig       0.036372
     44 H_17         14.4350   -5.6514    0.8706 hu      1  lig       0.077221
     45 H_18         12.3839   -5.8281    3.1467 hv      1  lig       0.132781
     46 H_19         11.9266   -7.9256    4.0075 hy      1  lig       0.113284
     47 H_1a         12.0849  -10.3883    3.8589 hz      1  lig       0.139248
     48 H_1b         12.9621  -11.4564    1.8116 hA      1  lig       0.136464
     49 H_1c         13.7105  -10.0654   -0.0977 hB      1  lig       0.142096
     50 H_1d         13.5752   -7.6146    0.0540 hC      1  lig       0.110461
     51 H_1e         10.8173   -5.9953    1.3112 hD      1  lig       0.339489
@<TRIPOS>BOND
     1     1     2    1
     2     1    25    1
     3     1    26    1
     4     1    27    1
     5     2     3    1
     6     2     4    1
     7     2     5    1
     8     3    28    1
     9     3    29    1
    10     3    30    1
    11     4    31    1
    12     4    32    1
    13     4    33    1
    14     5     6    2
    15     5    10    1
    16     6     7    1
    17     6    34    1
    18     7     8    2
    19     7    35    1
    20     8     9    1
    21     8    24    1
    22     9    10    2
    23     9    11    1
    24    10    36    1
    25    11    12    1
    26    11    16    1
    27    11    37    1
    28    12    13    1
    29    13    14    1
    30    13    38    1
    31    13    39    1
    32    14    15    1
    33    14    40    1
    34    14    41    1
    35    15    16    1
    36    15    42    1
    37    15    43    1
    38    16    17    1
    39    16    44    1
    40    17    18    1
    41    17    24    1
    42    17    45    1
    43    18    19    2
    44    18    23    1
    45    19    20    1
    46    19    46    1
    47    20    21    2
    48    20    47    1
    49    21    22    1
    50    21    48    1
    51    22    23    2
    52    22    49    1
    53    23    50    1
    54    24    51    1
