@<TRIPOS>MOLECULE
lig
  52   55 0 0 0
SMALL
NO_CHARGES


@<TRIPOS>ATOM
      1 C_00         12.8146    0.8080    0.0689 c4      1  lig      -0.175706
      2 C_01         11.9194   -0.1474   -0.7542 c5      1  lig       0.346948
      3 C_02         10.4685    0.3660   -0.7781 c6      1  lig      -0.204724
      4 C_03         12.4753   -0.2208   -2.1781 c7      1  lig      -0.315220
      5 C_04         11.8886   -1.5790   -0.1851 c8      1  lig      -0.004082
      6 C_05         10.8516   -2.4541   -0.5469 c9      1  lig      -0.225353
      7 C_06         10.7947   -3.7435   -0.0550 cb      1  lig      -0.256447
      8 C_07         11.8117   -4.2036    0.7644 ci      1  lig       0.273116
      9 C_08         12.8807   -3.3692    1.1329 cj      1  lig      -0.026201
     10 C_09         12.8820   -2.0552    0.6763 ck      1  lig      -0.229649
     11 C_0a         14.0286   -3.8741    1.9864 cm      1  lig       0.015854
     12 O_0b         13.8076   -3.4485    3.3326 o0      1  lig      -0.373809
     13 C_0c         14.8758   -3.7894    4.2165 cn      1  lig       0.028971
     14 C_0d         15.0715   -5.3181    4.2567 co      1  lig      -0.025327
     15 C_0e         15.2314   -5.9009    2.8436 cq      1  lig      -0.062963
     16 C_0f         14.1181   -5.4079    1.8901 cr      1  lig      -0.007031
     17 C_0g         12.7185   -6.0488    2.1265 cs      1  lig       0.104060
     18 C_0h         12.7612   -7.5479    2.0351 ct      1  lig      -0.036320
     19 C_0i         13.2453   -8.1893    0.8854 cw      1  lig      -0.127182
     20 C_0j         13.3212   -9.5776    0.8297 cA      1  lig      -0.330767
     21 C_0k         12.9274  -10.3120    1.9477 cB      1  lig       0.276569
     22 O_0l         12.9755  -11.6650    2.0910 o1      1  lig      -0.581002
     23 C_0m         12.4304   -9.6686    3.0444 cC      1  lig       0.242554
     24 F_0n         12.0577  -10.4439    4.0695 f0      1  lig      -0.183105
     25 C_0o         12.3226   -8.3021    3.1210 cD      1  lig      -0.254972
     26 N_0p         11.7434   -5.5361    1.1782 n0      1  lig      -0.630371
     27 H_0q         12.5325    0.8833    1.1150 h0      1  lig       0.035109
     28 H_0r         12.8684    1.8169   -0.3389 h6      1  lig       0.035109
     29 H_0s         13.8143    0.4106    0.0939 h7      1  lig       0.035109
     30 H_0t         10.1312    0.3291    0.2282 h8      1  lig       0.040667
     31 H_0u          9.7854   -0.1994   -1.3984 h9      1  lig       0.040667
     32 H_0v         10.2936    1.3645   -1.1331 hb      1  lig       0.040667
     33 H_0w         13.4726   -0.6589   -2.2247 hd      1  lig       0.066090
     34 H_0x         12.5251    0.7329   -2.6948 he      1  lig       0.066090
     35 H_0y         11.7885   -0.8617   -2.7053 hf      1  lig       0.066090
     36 H_0z         10.0577   -2.1640   -1.2118 hg      1  lig       0.187720
     37 H_10          9.9636   -4.3765   -0.3287 hh      1  lig       0.142129
     38 H_11         13.7110   -1.4397    0.9847 hi      1  lig       0.169925
     39 H_12         14.9568   -3.4397    1.6082 hj      1  lig       0.101419
     40 H_13         15.7982   -3.3159    3.8733 hk      1  lig       0.063119
     41 H_14         14.6645   -3.3991    5.2118 hl      1  lig       0.063119
     42 H_15         15.9448   -5.5693    4.8582 hm      1  lig       0.032429
     43 H_16         14.2132   -5.7780    4.7478 hq      1  lig       0.032429
     44 H_17         16.2000   -5.6073    2.4333 hr      1  lig       0.028074
     45 H_18         15.2545   -6.9886    2.8964 ht      1  lig       0.028074
     46 H_19         14.4360   -5.6292    0.8705 hu      1  lig       0.073152
     47 H_1a         12.3626   -5.7833    3.1259 hv      1  lig       0.134516
     48 H_1b         13.5633   -7.5865    0.0421 hy      1  lig       0.151118
     49 H_1c         13.6945  -10.0446   -0.0712 hz      1  lig       0.180357
     50 H_1d         13.1617  -12.2032    1.3104 hA      1  lig       0.434772
     51 H_1e         11.9305   -7.8479    4.0169 hB      1  lig       0.161703
     52 H_1f         10.8870   -6.0695    1.1050 hC      1  lig       0.352506
@<TRIPOS>BOND
     1     1     2    1
     2     1    27    1
     3     1    28    1
     4     1    29    1
     5     2     3    1
     6     2     4    1
     7     2     5    1
     8     3    30    1
     9     3    31    1
    10     3    32    1
    11     4    33    1
    12     4    34    1
    13     4    35    1
    14     5     6    2
    15     5    10    1
    16     6     7    1
    17     6    36    1
    18     7     8    2
    19     7    37    1
    20     8     9    1
    21     8    26    1
    22     9    10    2
    23     9    11    1
    24    10    38    1
    25    11    12    1
    26    11    16    1
    27    11    39    1
    28    12    13    1
    29    13    14    1
    30    13    40    1
    31    13    41    1
    32    14    15    1
    33    14    42    1
    34    14    43    1
    35    15    16    1
    36    15    44    1
    37    15    45    1
    38    16    17    1
    39    16    46    1
    40    17    18    1
    41    17    26    1
    42    17    47    1
    43    18    19    2
    44    18    25    1
    45    19    20    1
    46    19    48    1
    47    20    21    2
    48    20    49    1
    49    21    22    1
    50    21    23    1
    51    22    50    1
    52    23    24    1
    53    23    25    2
    54    25    51    1
    55    26    52    1
