@<TRIPOS>MOLECULE
lig
  52   55 0 0 0
SMALL
NO_CHARGES


@<TRIPOS>ATOM
      1 C_00         15.2945   -4.6456    7.5469 c4      1  lig      -0.049191
      2 N_01         14.2188   -3.9772    6.6830 n0      1  lig      -0.043663
      3 C_02         14.7170   -3.0548    5.5563 c5      1  lig      -0.138350
      4 C_03         14.9062   -3.7815    4.1963 c6      1  lig       0.043974
      5 C_04         15.0762   -5.3257    4.2405 c7      1  lig      -0.061006
      6 C_05         15.2119   -5.9103    2.8279 c8      1  lig      -0.159192
      7 C_06         14.0958   -5.4085    1.8831 c9      1  lig       0.000792
      8 C_07         12.7022   -6.0556    2.1309 cb      1  lig       0.038566
      9 C_08         12.7494   -7.5720    2.0320 ci      1  lig       0.007548
     10 C_09         12.3122   -8.3407    3.1105 cj      1  lig      -0.212072
     11 C_0a         12.3858   -9.7169    3.0355 ck      1  lig      -0.171255
     12 C_0b         12.8953  -10.3167    1.9053 cm      1  lig       0.328659
     13 O_0c         12.9346  -11.6580    1.9834 o0      1  lig      -0.586328
     14 C_0d         13.3254   -9.5761    0.8020 cn      1  lig      -0.268387
     15 C_0e         13.2462   -8.1884    0.8749 co      1  lig      -0.137672
     16 N_0f         11.6994   -5.5075    1.2212 ng      1  lig      -0.539283
     17 C_0g         11.7844   -4.1764    0.7815 cq      1  lig       0.200501
     18 C_0h         10.7699   -3.7067   -0.0503 cr      1  lig      -0.244668
     19 C_0i         10.8150   -2.4088   -0.5447 cs      1  lig      -0.118177
     20 C_0j         11.8616   -1.5558   -0.1890 ct      1  lig      -0.079939
     21 C_0k         11.9106   -0.1398   -0.7467 cw      1  lig       0.545672
     22 F_0l         10.6754    0.3322   -0.9250 f0      1  lig      -0.194248
     23 F_0m         12.5663    0.6893    0.0656 f1      1  lig      -0.196901
     24 F_0n         12.5325   -0.1603   -1.9255 f2      1  lig      -0.183978
     25 C_0o         12.8587   -2.0233    0.6738 cA      1  lig      -0.186719
     26 C_0p         12.8627   -3.3435    1.1365 cB      1  lig       0.040403
     27 C_0q         14.0125   -3.8687    1.9839 cC      1  lig      -0.003233
     28 O_0r         13.8063   -3.4625    3.3381 o1      1  lig      -0.354783
     29 H_0s         14.7131   -5.3408    8.1571 h0      1  lig       0.089907
     30 H_0t         15.7717   -3.8634    8.1459 h6      1  lig       0.089907
     31 H_0u         15.9993   -5.1648    6.8954 h7      1  lig       0.089907
     32 H_0v         13.6481   -4.6984    6.2609 h8      1  lig       0.252856
     33 H_0w         13.9150   -2.3146    5.4984 h9      1  lig       0.137122
     34 H_0x         15.6272   -2.5637    5.9148 hb      1  lig       0.137122
     35 H_0y         15.8145   -3.3482    3.7701 hd      1  lig       0.123646
     36 H_0z         15.9685   -5.5977    4.8005 he      1  lig       0.055681
     37 H_10         14.2301   -5.7976    4.7439 hf      1  lig       0.055681
     38 H_11         16.1813   -5.6195    2.4167 hg      1  lig       0.085457
     39 H_12         15.2366   -6.9982    2.8824 hh      1  lig       0.085457
     40 H_13         14.4092   -5.6329    0.8632 hi      1  lig       0.099638
     41 H_14         12.3643   -5.8188    3.1418 hj      1  lig       0.107377
     42 H_15         11.9255   -7.8983    4.0140 hk      1  lig       0.138034
     43 H_16         12.0629  -10.3482    3.8517 hl      1  lig       0.175308
     44 H_17         13.1991  -12.1433    1.1685 hm      1  lig       0.445775
     45 H_18         13.7047  -10.0489   -0.0940 hq      1  lig       0.167011
     46 H_19         13.5679   -7.5941    0.0318 hr      1  lig       0.151557
     47 H_1a         10.7811   -5.9070    1.3745 ht      1  lig       0.349397
     48 H_1b          9.9416   -4.3450   -0.3209 hu      1  lig       0.165969
     49 H_1c         10.0299   -2.0650   -1.2027 hv      1  lig       0.183927
     50 H_1d         13.6742   -1.3708    0.9526 hy      1  lig       0.160999
     51 H_1e         14.9439   -3.4301    1.6181 hz      1  lig       0.122339
     52 H_1f         13.6443   -3.4278    7.3100 hA      1  lig       0.252856
@<TRIPOS>BOND
     1     1     2    1
     2     1    29    1
     3     1    30    1
     4     1    31    1
     5     2     3    1
     6     2    32    1
     7     2    52    1
     8     3     4    1
     9     3    33    1
    10     3    34    1
    11     4     5    1
    12     4    28    1
    13     4    35    1
    14     5     6    1
    15     5    36    1
    16     5    37    1
    17     6     7    1
    18     6    38    1
    19     6    39    1
    20     7     8    1
    21     7    27    1
    22     7    40    1
    23     8     9    1
    24     8    16    1
    25     8    41    1
    26     9    10    2
    27     9    15    1
    28    10    11    1
    29    10    42    1
    30    11    12    2
    31    11    43    1
    32    12    13    1
    33    12    14    1
    34    13    44    1
    35    14    15    2
    36    14    45    1
    37    15    46    1
    38    16    17    1
    39    16    47    1
    40    17    18    2
    41    17    26    1
    42    18    19    1
    43    18    48    1
    44    19    20    2
    45    19    49    1
    46    20    21    1
    47    20    25    1
    48    21    22    1
    49    21    23    1
    50    21    24    1
    51    25    26    2
    52    25    50    1
    53    26    27    1
    54    27    28    1
    55    27    51    1
