@<TRIPOS>MOLECULE
lig
  55   59 0 0 0
SMALL
NO_CHARGES


@<TRIPOS>ATOM
      1 C_00         15.2821   -4.6350    7.5364 c4      1  lig      -0.039581
      2 N_01         14.1932   -3.9714    6.6802 n0      1  lig      -0.044758
      3 C_02         14.7173   -3.0545    5.5540 c5      1  lig      -0.168316
      4 C_03         14.9175   -3.7786    4.1872 c6      1  lig       0.046792
      5 C_04         15.0874   -5.3228    4.2360 c7      1  lig      -0.068466
      6 C_05         15.2206   -5.9197    2.8310 c8      1  lig      -0.217964
      7 C_06         14.1088   -5.4312    1.8792 c9      1  lig       0.014868
      8 C_07         12.7176   -6.0847    2.1226 cb      1  lig       0.025776
      9 C_08         12.7637   -7.6040    2.0348 ci      1  lig       0.012014
     10 C_09         13.2571   -8.2154    0.8775 cj      1  lig      -0.108687
     11 C_0a         13.3310   -9.5999    0.7947 ck      1  lig      -0.153754
     12 C_0b         12.9090  -10.3740    1.8712 cm      1  lig      -0.114919
     13 C_0c         12.4010   -9.7717    3.0201 cn      1  lig      -0.161782
     14 C_0d         12.3216   -8.3846    3.1028 co      1  lig      -0.116608
     15 N_0e         11.7445   -5.5529    1.1675 ng      1  lig      -0.568324
     16 C_0f         11.7783   -4.2163    0.7637 cq      1  lig       0.211388
     17 C_0g         10.7564   -3.7313   -0.0600 cr      1  lig      -0.261660
     18 C_0h         10.7840   -2.4218   -0.5217 cs      1  lig      -0.119394
     19 C_0i         11.8218   -1.5818   -0.1229 ct      1  lig      -0.017807
     20 C_0j         11.8894   -0.1791   -0.6884 cw      1  lig      -0.100459
     21 C_0k         12.9842    0.7528   -0.3261 cA      1  lig      -0.267579
     22 C_0l         12.9393    0.1563   -1.7215 cB      1  lig      -0.207411
     23 C_0m         12.8260   -2.0751    0.7222 cC      1  lig      -0.179479
     24 C_0n         12.8412   -3.3893    1.1509 cD      1  lig       0.008829
     25 C_0o         14.0126   -3.8975    1.9757 cE      1  lig       0.002148
     26 O_0p         13.8215   -3.4695    3.3243 o0      1  lig      -0.373902
     27 H_0q         14.7432   -5.2224    8.2879 h0      1  lig       0.089089
     28 H_0r         15.8954   -3.8612    8.0164 h6      1  lig       0.089089
     29 H_0s         15.9091   -5.2980    6.9311 h7      1  lig       0.089089
     30 H_0t         13.6118   -3.4115    7.2986 h8      1  lig       0.252324
     31 H_0u         15.6259   -2.5534    5.9128 h9      1  lig       0.144348
     32 H_0v         13.9360   -2.2914    5.4675 hb      1  lig       0.144348
     33 H_0w         15.8232   -3.3411    3.7607 hd      1  lig       0.126386
     34 H_0x         14.2483   -5.7949    4.7546 he      1  lig       0.063057
     35 H_0y         15.9900   -5.5952    4.7784 hf      1  lig       0.063057
     36 H_0z         16.1879   -5.6256    2.4157 hg      1  lig       0.102968
     37 H_10         15.2426   -7.0073    2.8962 hh      1  lig       0.102968
     38 H_11         14.4245   -5.6435    0.8559 hi      1  lig       0.107828
     39 H_12         12.3752   -5.8170    3.1268 hj      1  lig       0.101353
     40 H_13         13.5704   -7.6127    0.0382 hk      1  lig       0.122925
     41 H_14         13.6962  -10.0654   -0.1078 hl      1  lig       0.156361
     42 H_15         12.9524  -11.4515    1.8058 hm      1  lig       0.149020
     43 H_16         12.0676  -10.3758    3.8514 hq      1  lig       0.150953
     44 H_17         11.9274   -7.9213    3.9964 hr      1  lig       0.096892
     45 H_18         11.1139   -6.2188    0.7581 ht      1  lig       0.347911
     46 H_19          9.9362   -4.3709   -0.3457 hu      1  lig       0.166542
     47 H_1a         10.0223   -2.0493   -1.1963 hv      1  lig       0.149300
     48 H_1b         10.9154    0.2829   -0.8331 hy      1  lig       0.140953
     49 H_1c         12.8587    1.8276   -0.1827 hz      1  lig       0.119717
     50 H_1d         13.7896    0.3985    0.3059 hA      1  lig       0.119717
     51 H_1e         13.6590   -0.6004   -2.0043 hB      1  lig       0.115641
     52 H_1f         12.8015    0.8402   -2.5636 hC      1  lig       0.115641
     53 H_1g         13.6855   -1.4988    1.0279 hD      1  lig       0.176374
     54 H_1h         14.9341   -3.4492    1.5902 hE      1  lig       0.112860
     55 H_1i         13.5724   -4.6652    6.2709 hF      1  lig       0.252324
@<TRIPOS>BOND
     1     1     2    1
     2     1    27    1
     3     1    28    1
     4     1    29    1
     5     2     3    1
     6     2    30    1
     7     2    55    1
     8     3     4    1
     9     3    31    1
    10     3    32    1
    11     4     5    1
    12     4    26    1
    13     4    33    1
    14     5     6    1
    15     5    34    1
    16     5    35    1
    17     6     7    1
    18     6    36    1
    19     6    37    1
    20     7     8    1
    21     7    25    1
    22     7    38    1
    23     8     9    1
    24     8    15    1
    25     8    39    1
    26     9    10    2
    27     9    14    1
    28    10    11    1
    29    10    40    1
    30    11    12    2
    31    11    41    1
    32    12    13    1
    33    12    42    1
    34    13    14    2
    35    13    43    1
    36    14    44    1
    37    15    16    1
    38    15    45    1
    39    16    17    2
    40    16    24    1
    41    17    18    1
    42    17    46    1
    43    18    19    2
    44    18    47    1
    45    19    20    1
    46    19    23    1
    47    20    21    1
    48    20    22    1
    49    20    48    1
    50    21    22    1
    51    21    49    1
    52    21    50    1
    53    22    51    1
    54    22    52    1
    55    23    24    2
    56    23    53    1
    57    24    25    1
    58    25    26    1
    59    25    54    1
