@<TRIPOS>MOLECULE
lig
  66   70 0 0 0
SMALL
NO_CHARGES


@<TRIPOS>ATOM
      1 N_00         17.0595   -4.3278    9.3015 n0      1  lig      -0.252122
      2 C_01         16.4111   -3.6781    8.0642 c4      1  lig       0.036226
      3 C_02         15.4283   -4.6540    7.4209 c5      1  lig      -0.129397
      4 N_03         14.3173   -3.9632    6.7098 ng      1  lig      -0.254864
      5 C_04         14.6711   -3.1205    5.5672 c6      1  lig      -0.209746
      6 C_05         14.8777   -3.7953    4.1876 c7      1  lig       0.044127
      7 C_06         15.1008   -5.3295    4.2145 c8      1  lig       0.006537
      8 C_07         15.2228   -5.9222    2.8121 c9      1  lig      -0.215690
      9 C_08         14.1174   -5.4218    1.8557 cb      1  lig       0.003761
     10 C_09         12.7216   -6.0747    2.0945 ci      1  lig      -0.004847
     11 C_0a         12.7729   -7.6008    2.0278 cj      1  lig       0.033671
     12 C_0b         13.2706   -8.2220    0.8801 ck      1  lig      -0.108008
     13 C_0c         13.3326   -9.6058    0.8050 cm      1  lig      -0.162680
     14 C_0d         12.9181  -10.3802    1.8839 cn      1  lig      -0.110939
     15 C_0e         12.4178   -9.7705    3.0309 co      1  lig      -0.201564
     16 C_0f         12.3383   -8.3811    3.1031 cq      1  lig      -0.090444
     17 N_0g         11.7413   -5.5300    1.1481 nr      1  lig      -0.525527
     18 C_0h         11.8102   -4.1920    0.7296 cr      1  lig       0.169761
     19 C_0i         10.7818   -3.7078   -0.0824 cs      1  lig      -0.207344
     20 C_0j         10.8015   -2.3932   -0.5399 ct      1  lig      -0.147785
     21 C_0k         11.8482   -1.5380   -0.1822 cw      1  lig      -0.031487
     22 C_0l         11.8927   -0.1087   -0.7182 cA      1  lig       0.527680
     23 F_0m         10.6612    0.3848   -0.9020 f0      1  lig      -0.198000
     24 F_0n         12.5434    0.7151    0.1022 f1      1  lig      -0.193405
     25 F_0o         12.5269   -0.1156   -1.8900 f2      1  lig      -0.196323
     26 C_0p         12.8592   -2.0214    0.6553 cB      1  lig      -0.178492
     27 C_0q         12.8763   -3.3505    1.0997 cC      1  lig       0.020039
     28 C_0r         14.0264   -3.8788    1.9517 cD      1  lig       0.000441
     29 O_0s         13.7985   -3.4740    3.3022 o0      1  lig      -0.278060
     30 C_0t         13.3153   -3.3837    7.5227 cE      1  lig       0.031508
     31 C_0u         13.5260   -3.1620    8.8770 cF      1  lig      -0.121493
     32 C_0v         12.6670   -2.3578    9.6181 cG      1  lig      -0.218670
     33 C_0w         11.5921   -1.7940    8.9796 cH      1  lig      -0.070266
     34 C_0x         11.2437   -2.1161    7.6763 cI      1  lig      -0.162537
     35 C_0y         12.1204   -2.9427    6.9433 cJ      1  lig      -0.094528
     36 H_0z         17.6568   -3.6617    9.7565 h0      1  lig       0.292008
     37 H_10         17.6101   -5.1312    9.0447 h6      1  lig       0.292008
     38 H_11         15.9195   -2.7926    8.4434 h7      1  lig       0.110609
     39 H_12         17.2377   -3.4059    7.4424 h8      1  lig       0.110609
     40 H_13         15.9313   -5.3216    6.7606 h9      1  lig       0.106544
     41 H_14         14.9812   -5.2759    8.1921 hb      1  lig       0.106544
     42 H_15         13.9247   -2.3268    5.4426 hd      1  lig       0.152556
     43 H_16         15.5691   -2.5567    5.8165 he      1  lig       0.152556
     44 H_17         15.7729   -3.3247    3.7794 hf      1  lig       0.095216
     45 H_18         16.0240   -5.5622    4.7373 hg      1  lig       0.023886
     46 H_19         14.2903   -5.8199    4.7564 hh      1  lig       0.023886
     47 H_1a         16.1958   -5.6425    2.4082 hi      1  lig       0.086697
     48 H_1b         15.2434   -7.0086    2.8819 hj      1  lig       0.086697
     49 H_1c         14.4469   -5.6561    0.8431 hk      1  lig       0.101052
     50 H_1d         12.3742   -5.8039    3.0944 hl      1  lig       0.168194
     51 H_1e         13.6090   -7.6310    0.0429 hm      1  lig       0.121905
     52 H_1f         13.7259  -10.0642   -0.0889 hq      1  lig       0.155147
     53 H_1g         12.9744  -11.4583    1.8259 hr      1  lig       0.144498
     54 H_1h         12.0836  -10.3775    3.8617 ht      1  lig       0.144513
     55 H_1i         11.9448   -7.9147    3.9942 hu      1  lig       0.083257
     56 H_1j         10.8681   -6.0360    1.1026 hv      1  lig       0.329654
     57 H_1k          9.9645   -4.3552   -0.3654 hy      1  lig       0.149568
     58 H_1l         10.0037   -2.0394   -1.1794 hz      1  lig       0.171255
     59 H_1m         13.6697   -1.3617    0.9363 hA      1  lig       0.158712
     60 H_1n         14.9580   -3.4381    1.5896 hB      1  lig       0.107893
     61 H_1o         14.3767   -3.5863    9.3810 hC      1  lig       0.136429
     62 H_1p         12.8478   -2.1791   10.6617 hD      1  lig       0.145549
     63 H_1q         10.9180   -1.1483    9.5397 hE      1  lig       0.135527
     64 H_1r         10.3539   -1.7242    7.2367 hF      1  lig       0.151284
     65 H_1s         11.8461   -3.2038    5.9297 hG      1  lig       0.154206
     66 H_1t         16.3405   -4.6101    9.9418 hH      1  lig       0.292008
@<TRIPOS>BOND
     1     1     2    1
     2     1    36    1
     3     1    37    1
     4     1    66    1
     5     2     3    1
     6     2    38    1
     7     2    39    1
     8     3     4    1
     9     3    40    1
    10     3    41    1
    11     4     5    1
    12     4    30    1
    13     5     6    1
    14     5    42    1
    15     5    43    1
    16     6     7    1
    17     6    29    1
    18     6    44    1
    19     7     8    1
    20     7    45    1
    21     7    46    1
    22     8     9    1
    23     8    47    1
    24     8    48    1
    25     9    10    1
    26     9    28    1
    27     9    49    1
    28    10    11    1
    29    10    17    1
    30    10    50    1
    31    11    12    2
    32    11    16    1
    33    12    13    1
    34    12    51    1
    35    13    14    2
    36    13    52    1
    37    14    15    1
    38    14    53    1
    39    15    16    2
    40    15    54    1
    41    16    55    1
    42    17    18    1
    43    17    56    1
    44    18    19    2
    45    18    27    1
    46    19    20    1
    47    19    57    1
    48    20    21    2
    49    20    58    1
    50    21    22    1
    51    21    26    1
    52    22    23    1
    53    22    24    1
    54    22    25    1
    55    26    27    2
    56    26    59    1
    57    27    28    1
    58    28    29    1
    59    28    60    1
    60    30    31    2
    61    30    35    1
    62    31    32    1
    63    31    61    1
    64    32    33    2
    65    32    62    1
    66    33    34    1
    67    33    63    1
    68    34    35    2
    69    34    64    1
    70    35    65    1
