@<TRIPOS>MOLECULE
lig
  51   54 0 0 0
SMALL
NO_CHARGES


@<TRIPOS>ATOM
      1 C_00         15.2852   -4.6386    7.5377 c4      1  lig      -0.045273
      2 N_01         14.2140   -3.9638    6.6838 n0      1  lig      -0.041683
      3 C_02         14.7229   -3.0568    5.5568 c5      1  lig      -0.145886
      4 C_03         14.9031   -3.7791    4.1930 c6      1  lig       0.044539
      5 C_04         15.0673   -5.3233    4.2376 c7      1  lig      -0.055164
      6 C_05         15.2106   -5.9104    2.8268 c8      1  lig      -0.173890
      7 C_06         14.0964   -5.4064    1.8821 c9      1  lig       0.007904
      8 C_07         12.7040   -6.0577    2.1299 cb      1  lig       0.042049
      9 C_08         12.7501   -7.5747    2.0307 ci      1  lig       0.006198
     10 C_09         13.2481   -8.1929    0.8744 cj      1  lig      -0.163592
     11 C_0a         13.3274   -9.5772    0.8022 ck      1  lig      -0.174330
     12 C_0b         12.9065  -10.3273    1.8986 cm      1  lig       0.267826
     13 F_0c         12.9781  -11.6576    1.9122 f0      1  lig      -0.184129
     14 C_0d         12.4005   -9.7294    3.0355 cn      1  lig      -0.184355
     15 C_0e         12.3196   -8.3522    3.1084 co      1  lig      -0.182716
     16 N_0f         11.6986   -5.5069    1.2248 ng      1  lig      -0.524413
     17 C_0g         11.7870   -4.1773    0.7812 cq      1  lig       0.190958
     18 C_0h         10.7766   -3.7112   -0.0571 cr      1  lig      -0.245958
     19 C_0i         10.8176   -2.4109   -0.5470 cs      1  lig      -0.115274
     20 C_0j         11.8604   -1.5556   -0.1863 ct      1  lig      -0.078956
     21 C_0k         11.9094   -0.1390   -0.7460 cw      1  lig       0.542950
     22 F_0l         12.5320   -0.1612   -1.9254 f1      1  lig      -0.182143
     23 F_0m         10.6767    0.3334   -0.9239 f2      1  lig      -0.193223
     24 F_0n         12.5676    0.6891    0.0651 f3      1  lig      -0.196034
     25 C_0o         12.8548   -2.0208    0.6812 cA      1  lig      -0.184640
     26 C_0p         12.8610   -3.3416    1.1411 cB      1  lig       0.043196
     27 C_0q         14.0088   -3.8657    1.9891 cC      1  lig      -0.003595
     28 O_0r         13.7932   -3.4672    3.3434 o0      1  lig      -0.343860
     29 H_0s         14.6948   -5.2041    8.2632 h0      1  lig       0.089133
     30 H_0t         15.8829   -3.8490    8.0065 h6      1  lig       0.089133
     31 H_0u         15.8800   -5.2958    6.9019 h7      1  lig       0.089133
     32 H_0v         13.6178   -4.6706    6.2820 h8      1  lig       0.251513
     33 H_0w         13.9311   -2.3052    5.5033 h9      1  lig       0.139843
     34 H_0x         15.6440   -2.5855    5.9141 hb      1  lig       0.139843
     35 H_0y         15.8092   -3.3451    3.7550 hd      1  lig       0.123301
     36 H_0z         15.9506   -5.6016    4.8084 he      1  lig       0.053860
     37 H_10         14.2088   -5.7825    4.7320 hf      1  lig       0.053860
     38 H_11         16.1820   -5.6237    2.4174 hg      1  lig       0.089692
     39 H_12         15.2320   -6.9982    2.8820 hh      1  lig       0.089692
     40 H_13         14.4096   -5.6240    0.8610 hi      1  lig       0.100679
     41 H_14         12.3673   -5.8233    3.1411 hj      1  lig       0.097957
     42 H_15         13.5784   -7.5954    0.0345 hk      1  lig       0.151328
     43 H_16         13.7093  -10.0600   -0.0884 hl      1  lig       0.174498
     44 H_17         12.0946  -10.3597    3.8597 hm      1  lig       0.170182
     45 H_18         11.9422   -7.8995    4.0140 hq      1  lig       0.140563
     46 H_19         10.7765   -5.8854    1.4070 hr      1  lig       0.347654
     47 H_1a          9.9543   -4.3549   -0.3328 ht      1  lig       0.167400
     48 H_1b         10.0329   -2.0650   -1.2044 hu      1  lig       0.184308
     49 H_1c         13.6650   -1.3653    0.9686 hv      1  lig       0.158938
     50 H_1d         14.9422   -3.4219    1.6325 hy      1  lig       0.119471
     51 H_1e         13.6785   -3.3900    7.3163 hz      1  lig       0.251513
@<TRIPOS>BOND
     1     1     2    1
     2     1    29    1
     3     1    30    1
     4     1    31    1
     5     2     3    1
     6     2    32    1
     7     2    51    1
     8     3     4    1
     9     3    33    1
    10     3    34    1
    11     4     5    1
    12     4    28    1
    13     4    35    1
    14     5     6    1
    15     5    36    1
    16     5    37    1
    17     6     7    1
    18     6    38    1
    19     6    39    1
    20     7     8    1
    21     7    27    1
    22     7    40    1
    23     8     9    1
    24     8    16    1
    25     8    41    1
    26     9    10    2
    27     9    15    1
    28    10    11    1
    29    10    42    1
    30    11    12    2
    31    11    43    1
    32    12    13    1
    33    12    14    1
    34    14    15    2
    35    14    44    1
    36    15    45    1
    37    16    17    1
    38    16    46    1
    39    17    18    2
    40    17    26    1
    41    18    19    1
    42    18    47    1
    43    19    20    2
    44    19    48    1
    45    20    21    1
    46    20    25    1
    47    21    22    1
    48    21    23    1
    49    21    24    1
    50    25    26    2
    51    25    49    1
    52    26    27    1
    53    27    28    1
    54    27    50    1
