@<TRIPOS>MOLECULE
lig
  66   69 0 0 0
SMALL
NO_CHARGES


@<TRIPOS>ATOM
      1 C_00         17.1208   -7.6407   11.4944 c4      1  lig      -0.139174
      2 N_01         15.6242   -7.2482   11.5606 n0      1  lig      -0.009067
      3 C_02         15.1903   -7.0165   13.0246 c5      1  lig      -0.253000
      4 C_03         15.2858   -6.0369   10.6535 c6      1  lig      -0.087725
      5 C_04         15.3687   -6.4451    9.1688 c7      1  lig       0.000483
      6 N_05         14.6307   -5.5382    8.2833 ng      1  lig      -0.526273
      7 C_06         15.2046   -4.6148    7.4955 c8      1  lig       0.646846
      8 O_07         16.4171   -4.3982    7.4780 o0      1  lig      -0.534737
      9 N_08         14.3250   -3.9893    6.6937 nr      1  lig      -0.570077
     10 C_09         14.7079   -3.1014    5.5887 c9      1  lig      -0.007264
     11 C_0a         14.9053   -3.7799    4.2057 cb      1  lig       0.015759
     12 C_0b         15.0866   -5.3225    4.2389 ci      1  lig      -0.063172
     13 C_0c         15.2182   -5.9111    2.8299 cj      1  lig      -0.127595
     14 C_0d         14.1067   -5.4122    1.8780 ck      1  lig       0.009983
     15 C_0e         12.7152   -6.0685    2.1272 cm      1  lig       0.041336
     16 C_0f         12.7619   -7.5943    2.0392 cn      1  lig       0.010938
     17 C_0g         13.2585   -8.2080    0.8850 co      1  lig      -0.098169
     18 C_0h         13.3325   -9.5936    0.8010 cq      1  lig      -0.149725
     19 C_0i         12.9111  -10.3707    1.8760 cr      1  lig      -0.128892
     20 C_0j         12.4042   -9.7694    3.0248 cs      1  lig      -0.169708
     21 C_0k         12.3240   -8.3811    3.1077 ct      1  lig      -0.096771
     22 N_0l         11.7146   -5.5161    1.2136 nw      1  lig      -0.549598
     23 C_0m         11.7897   -4.1790    0.7828 cw      1  lig       0.255915
     24 C_0n         10.7767   -3.7118   -0.0511 cA      1  lig      -0.271199
     25 C_0o         10.8134   -2.4087   -0.5370 cB      1  lig      -0.129427
     26 C_0p         11.8546   -1.5518   -0.1784 cC      1  lig      -0.059147
     27 C_0q         11.8961   -0.1327   -0.7370 cD      1  lig       0.538071
     28 F_0r         12.5327   -0.1525   -1.9080 f0      1  lig      -0.193555
     29 F_0s         10.6622    0.3290   -0.9348 f1      1  lig      -0.199429
     30 F_0t         12.5354    0.7038    0.0806 f2      1  lig      -0.191595
     31 C_0u         12.8578   -2.0201    0.6775 cE      1  lig      -0.191422
     32 C_0v         12.8617   -3.3430    1.1425 cF      1  lig      -0.004398
     33 C_0w         14.0142   -3.8707    1.9829 cG      1  lig       0.000404
     34 O_0x         13.8081   -3.4639    3.3402 o1      1  lig      -0.312483
     35 H_0y         17.7113   -6.7969   11.8567 h0      1  lig       0.122701
     36 H_0z         17.3740   -7.8767   10.4603 h6      1  lig       0.122701
     37 H_10         17.2673   -8.5191   12.1246 h7      1  lig       0.122701
     38 H_11         15.8080   -6.2212   13.4462 h8      1  lig       0.144991
     39 H_12         15.3361   -7.9568   13.5567 h9      1  lig       0.144991
     40 H_13         14.1337   -6.7438   13.0292 hb      1  lig       0.144991
     41 H_14         14.2726   -5.7239   10.9114 hd      1  lig       0.133700
     42 H_15         15.9845   -5.2443   10.9348 he      1  lig       0.133700
     43 H_16         16.4162   -6.5231    8.8640 hf      1  lig       0.088441
     44 H_17         14.9420   -7.4387    9.0363 hg      1  lig       0.088441
     45 H_18         13.6294   -5.6568    8.2395 hh      1  lig       0.358783
     46 H_19         13.3355   -4.1464    6.8108 hi      1  lig       0.329590
     47 H_1a         13.9461   -2.3268    5.5168 hj      1  lig       0.105015
     48 H_1b         15.6254   -2.5650    5.8439 hk      1  lig       0.105015
     49 H_1c         15.8025   -3.3200    3.7819 hl      1  lig       0.099965
     50 H_1d         15.9692   -5.5863    4.8210 hm      1  lig       0.060920
     51 H_1e         14.2376   -5.7853    4.7452 hq      1  lig       0.060920
     52 H_1f         16.1874   -5.6240    2.4207 hr      1  lig       0.060163
     53 H_1g         15.2392   -6.9986    2.8928 ht      1  lig       0.060163
     54 H_1h         14.4252   -5.6330    0.8574 hu      1  lig       0.088743
     55 H_1i         12.3880   -5.8136    3.1374 hv      1  lig       0.095186
     56 H_1j         13.5758   -7.6098    0.0450 hy      1  lig       0.119286
     57 H_1k         13.7099  -10.0616   -0.0950 hz      1  lig       0.153605
     58 H_1l         12.9588  -11.4481    1.8080 hA      1  lig       0.147652
     59 H_1m         12.0706  -10.3802    3.8519 hB      1  lig       0.133636
     60 H_1n         11.9249   -7.9218    4.0012 hC      1  lig       0.066068
     61 H_1o         10.8052   -5.9499    1.3121 hD      1  lig       0.328150
     62 H_1p          9.9603   -4.3577   -0.3382 hE      1  lig       0.162598
     63 H_1q         10.0317   -2.0700   -1.2005 hF      1  lig       0.178576
     64 H_1r         13.6772   -1.3689    0.9476 hG      1  lig       0.173136
     65 H_1s         14.9369   -3.4306    1.5995 hH      1  lig       0.119143
     66 H_1t         15.0791   -8.0358   11.2257 hI      1  lig       0.290196
@<TRIPOS>BOND
     1     1     2    1
     2     1    35    1
     3     1    36    1
     4     1    37    1
     5     2     3    1
     6     2     4    1
     7     2    66    1
     8     3    38    1
     9     3    39    1
    10     3    40    1
    11     4     5    1
    12     4    41    1
    13     4    42    1
    14     5     6    1
    15     5    43    1
    16     5    44    1
    17     6     7    1
    18     6    45    1
    19     7     8    2
    20     7     9    1
    21     9    10    1
    22     9    46    1
    23    10    11    1
    24    10    47    1
    25    10    48    1
    26    11    12    1
    27    11    34    1
    28    11    49    1
    29    12    13    1
    30    12    50    1
    31    12    51    1
    32    13    14    1
    33    13    52    1
    34    13    53    1
    35    14    15    1
    36    14    33    1
    37    14    54    1
    38    15    16    1
    39    15    22    1
    40    15    55    1
    41    16    17    2
    42    16    21    1
    43    17    18    1
    44    17    56    1
    45    18    19    2
    46    18    57    1
    47    19    20    1
    48    19    58    1
    49    20    21    2
    50    20    59    1
    51    21    60    1
    52    22    23    1
    53    22    61    1
    54    23    24    2
    55    23    32    1
    56    24    25    1
    57    24    62    1
    58    25    26    2
    59    25    63    1
    60    26    27    1
    61    26    31    1
    62    27    28    1
    63    27    29    1
    64    27    30    1
    65    31    32    2
    66    31    64    1
    67    32    33    1
    68    33    34    1
    69    33    65    1
