@<TRIPOS>MOLECULE
lig
  48   51 0 0 0
SMALL
NO_CHARGES


@<TRIPOS>ATOM
      1 C_00         15.2950   -4.6489    7.5427 c4      1  lig      -0.045702
      2 N_01         14.2431   -3.9717    6.6832 n0      1  lig      -0.046524
      3 C_02         14.7152   -3.0566    5.5506 c5      1  lig      -0.129832
      4 C_03         14.8996   -3.7854    4.1962 c6      1  lig       0.042804
      5 C_04         15.0784   -5.3263    4.2419 c7      1  lig      -0.062751
      6 C_05         15.2145   -5.9089    2.8275 c8      1  lig      -0.181071
      7 C_06         14.0958   -5.4103    1.8854 c9      1  lig      -0.013012
      8 C_07         12.7046   -6.0664    2.1334 cb      1  lig       0.016777
      9 C_08         12.7522   -7.5891    2.0319 ci      1  lig       0.011953
     10 C_09         13.2426   -8.2016    0.8733 cj      1  lig      -0.107684
     11 C_0a         13.3140   -9.5878    0.7904 ck      1  lig      -0.151852
     12 C_0b         12.8993  -10.3629    1.8685 cm      1  lig      -0.109810
     13 C_0c         12.3976   -9.7624    3.0199 cn      1  lig      -0.165441
     14 C_0d         12.3188   -8.3746    3.1014 co      1  lig      -0.117157
     15 N_0e         11.7003   -5.5083    1.2297 ng      1  lig      -0.498213
     16 C_0f         11.7953   -4.1716    0.7885 cq      1  lig       0.132933
     17 C_0g         10.7805   -3.6907   -0.0459 cr      1  lig       0.159487
     18 F_0h          9.7395   -4.4635   -0.3381 f0      1  lig      -0.183723
     19 C_0i         10.8168   -2.3885   -0.5402 cs      1  lig      -0.038078
     20 C_0j         11.8588   -1.5562   -0.1789 ct      1  lig      -0.230073
     21 Br0k         11.9219    0.2266   -0.8239 a0      1  lig      -0.014988
     22 C_0l         12.8579   -2.0181    0.6739 cw      1  lig      -0.082301
     23 C_0m         12.8701   -3.3425    1.1348 cA      1  lig       0.012451
     24 C_0n         14.0136   -3.8673    1.9896 cB      1  lig      -0.000026
     25 O_0o         13.8021   -3.4602    3.3414 o0      1  lig      -0.350998
     26 H_0p         14.6722   -5.3376    8.1135 h0      1  lig       0.090491
     27 H_0q         15.7378   -3.8667    8.1578 h6      1  lig       0.090491
     28 H_0r         15.9889   -5.1440    6.8693 h7      1  lig       0.090491
     29 H_0s         13.6986   -4.7078    6.2653 h8      1  lig       0.251670
     30 H_0t         13.9006   -2.3314    5.5188 h9      1  lig       0.134946
     31 H_0u         15.6229   -2.5742    5.9093 hb      1  lig       0.134946
     32 H_0v         15.8010   -3.3533    3.7592 hd      1  lig       0.124653
     33 H_0w         15.9669   -5.5897    4.8122 he      1  lig       0.058183
     34 H_0x         14.2332   -5.7983    4.7432 hf      1  lig       0.058183
     35 H_0y         16.1816   -5.6138    2.4140 hg      1  lig       0.093623
     36 H_0z         15.2390   -6.9966    2.8739 hh      1  lig       0.093623
     37 H_10         14.4023   -5.6396    0.8642 hi      1  lig       0.109410
     38 H_11         12.3631   -5.8282    3.1420 hj      1  lig       0.099079
     39 H_12         13.5605   -7.6046    0.0315 hk      1  lig       0.121152
     40 H_13         13.6817  -10.0581   -0.1090 hl      1  lig       0.158361
     41 H_14         12.9563  -11.4399    1.8085 hm      1  lig       0.150185
     42 H_15         12.0729  -10.3710    3.8527 hq      1  lig       0.153823
     43 H_16         11.9266   -7.9115    3.9950 hr      1  lig       0.102900
     44 H_17         10.7715   -5.8527    1.4458 ht      1  lig       0.346096
     45 H_18         10.0125   -2.0341   -1.1684 hu      1  lig       0.169191
     46 H_19         13.6352   -1.3316    0.9629 hv      1  lig       0.140133
     47 H_1a         14.9508   -3.4231    1.6469 hy      1  lig       0.129531
     48 H_1b         13.6821   -3.4293    7.3237 hz      1  lig       0.251670
@<TRIPOS>BOND
     1     1     2    1
     2     1    26    1
     3     1    27    1
     4     1    28    1
     5     2     3    1
     6     2    29    1
     7     2    48    1
     8     3     4    1
     9     3    30    1
    10     3    31    1
    11     4     5    1
    12     4    25    1
    13     4    32    1
    14     5     6    1
    15     5    33    1
    16     5    34    1
    17     6     7    1
    18     6    35    1
    19     6    36    1
    20     7     8    1
    21     7    24    1
    22     7    37    1
    23     8     9    1
    24     8    15    1
    25     8    38    1
    26     9    10    2
    27     9    14    1
    28    10    11    1
    29    10    39    1
    30    11    12    2
    31    11    40    1
    32    12    13    1
    33    12    41    1
    34    13    14    2
    35    13    42    1
    36    14    43    1
    37    15    16    1
    38    15    44    1
    39    16    17    2
    40    16    23    1
    41    17    18    1
    42    17    19    1
    43    19    20    2
    44    19    45    1
    45    20    21    1
    46    20    22    1
    47    22    23    2
    48    22    46    1
    49    23    24    1
    50    24    25    1
    51    24    47    1
