@<TRIPOS>MOLECULE
lig
  39   42 0 0 0
SMALL
NO_CHARGES


@<TRIPOS>ATOM
      1 C_00         14.8893   -3.7981    4.1945 c4      1  lig       0.050620
      2 C_01         15.0804   -5.3249    4.2412 c5      1  lig      -0.021733
      3 C_02         15.2239   -5.9068    2.8287 c6      1  lig      -0.075148
      4 C_03         14.1049   -5.4146    1.8817 c7      1  lig      -0.014831
      5 C_04         12.7106   -6.0702    2.1171 c8      1  lig       0.047727
      6 C_05         12.7580   -7.5939    2.0347 c9      1  lig       0.012677
      7 C_06         12.3194   -8.3766    3.1039 cb      1  lig      -0.124241
      8 C_07         12.3978   -9.7673    3.0196 ci      1  lig      -0.153354
      9 C_08         12.9042  -10.3679    1.8692 cj      1  lig      -0.134234
     10 C_09         13.3260   -9.5937    0.7962 ck      1  lig      -0.156559
     11 C_0a         13.2507   -8.2088    0.8795 cm      1  lig      -0.108749
     12 N_0b         11.7473   -5.5319    1.1616 n0      1  lig      -0.613178
     13 C_0c         11.7944   -4.1869    0.7523 cn      1  lig       0.282844
     14 C_0d         10.7727   -3.7107   -0.0610 co      1  lig      -0.287812
     15 C_0e         10.8032   -2.4026   -0.5353 cq      1  lig      -0.063998
     16 C_0f         11.8552   -1.5670   -0.1635 cr      1  lig      -0.037313
     17 Cl0g         11.9379    0.0314   -0.7672 a0      1  lig      -0.139116
     18 C_0h         12.8564   -2.0281    0.6785 cs      1  lig      -0.112597
     19 C_0i         12.8661   -3.3474    1.1339 ct      1  lig      -0.038831
     20 C_0j         14.0119   -3.8725    1.9814 cw      1  lig       0.017642
     21 O_0k         13.8062   -3.4544    3.3298 o0      1  lig      -0.367789
     22 H_0l         15.8089   -3.3291    3.8337 h0      1  lig       0.057115
     23 H_0m         14.2305   -5.7850    4.7470 h6      1  lig       0.030031
     24 H_0n         15.9612   -5.5785    4.8331 h7      1  lig       0.030031
     25 H_0o         15.2499   -6.9950    2.8822 h8      1  lig       0.034246
     26 H_0p         16.1888   -5.6094    2.4116 h9      1  lig       0.034246
     27 H_0q         14.4180   -5.6334    0.8605 hb      1  lig       0.082823
     28 H_0r         12.3624   -5.8151    3.1221 hd      1  lig       0.141216
     29 H_0s         11.9273   -7.9173    3.9994 he      1  lig       0.110945
     30 H_0t         12.0644  -10.3748    3.8484 hf      1  lig       0.140358
     31 H_0u         12.9482  -11.4459    1.8023 hg      1  lig       0.136543
     32 H_0v         13.6939  -10.0609   -0.1057 hh      1  lig       0.141109
     33 H_0w         13.5643   -7.6077    0.0384 hi      1  lig       0.118158
     34 H_0x         10.9613   -6.1290    0.9493 hj      1  lig       0.350601
     35 H_0y          9.9479   -4.3538   -0.3413 hk      1  lig       0.156442
     36 H_0z         10.0267   -2.0394   -1.1925 hl      1  lig       0.150223
     37 H_10         13.6764   -1.3643    0.9323 hm      1  lig       0.161552
     38 H_11         14.9419   -3.4369    1.6042 hq      1  lig       0.105219
     39 H_12         14.7142   -3.3943    5.1913 hr      1  lig       0.057115
@<TRIPOS>BOND
     1     1     2    1
     2     1    21    1
     3     1    22    1
     4     1    39    1
     5     2     3    1
     6     2    23    1
     7     2    24    1
     8     3     4    1
     9     3    25    1
    10     3    26    1
    11     4     5    1
    12     4    20    1
    13     4    27    1
    14     5     6    1
    15     5    12    1
    16     5    28    1
    17     6     7    2
    18     6    11    1
    19     7     8    1
    20     7    29    1
    21     8     9    2
    22     8    30    1
    23     9    10    1
    24     9    31    1
    25    10    11    2
    26    10    32    1
    27    11    33    1
    28    12    13    1
    29    12    34    1
    30    13    14    2
    31    13    19    1
    32    14    15    1
    33    14    35    1
    34    15    16    2
    35    15    36    1
    36    16    17    1
    37    16    18    1
    38    18    19    2
    39    18    37    1
    40    19    20    1
    41    20    21    1
    42    20    38    1
