@<TRIPOS>MOLECULE
lig
  48   51 0 0 0
SMALL
NO_CHARGES


@<TRIPOS>ATOM
      1 C_00         12.7976    0.8124    0.0757 c4      1  lig      -0.177033
      2 C_01         11.9223   -0.1613   -0.7525 c5      1  lig       0.352048
      3 C_02         12.4837   -0.2199   -2.1743 c6      1  lig      -0.318763
      4 C_03         10.4601    0.3453   -0.8043 c7      1  lig      -0.205377
      5 C_04         11.8888   -1.5853   -0.1835 c8      1  lig      -0.003879
      6 C_05         10.8508   -2.4597   -0.5444 c9      1  lig      -0.221450
      7 C_06         10.7949   -3.7505   -0.0484 cb      1  lig      -0.280924
      8 C_07         11.8123   -4.2146    0.7836 ci      1  lig       0.318355
      9 C_08         12.8780   -3.3664    1.1426 cj      1  lig      -0.035739
     10 C_09         12.8759   -2.0519    0.6772 ck      1  lig      -0.230150
     11 C_0a         14.0261   -3.8755    1.9883 cm      1  lig       0.019294
     12 O_0b         13.8055   -3.4421    3.3329 o0      1  lig      -0.372513
     13 C_0c         14.8759   -3.7853    4.2185 cn      1  lig       0.042372
     14 C_0d         15.0685   -5.3210    4.2539 co      1  lig      -0.024842
     15 C_0e         15.2293   -5.8998    2.8448 cq      1  lig      -0.118245
     16 C_0f         14.1243   -5.4049    1.8889 cr      1  lig      -0.015918
     17 C_0g         12.7346   -6.0749    2.1322 cs      1  lig       0.015124
     18 C_0h         12.7930   -7.5766    1.9454 ct      1  lig      -0.110376
     19 C_0i         12.2219   -8.5635    2.7386 cw      1  lig      -0.010735
     20 C_0j         12.4438   -9.8621    2.2888 cA      1  lig      -0.261454
     21 C_0k         13.1981   -9.8931    1.1291 cB      1  lig      -0.173895
     22 S_0l         13.6519   -8.2955    0.6241 s0      1  lig      -0.021776
     23 N_0m         11.7340   -5.5417    1.2135 n0      1  lig      -0.584834
     24 H_0n         12.8648    1.8235   -0.3318 h0      1  lig       0.035607
     25 H_0o         13.7971    0.4041    0.0942 h6      1  lig       0.035607
     26 H_0p         12.5322    0.8833    1.1341 h7      1  lig       0.035607
     27 H_0q         12.5385    0.7348   -2.6951 h8      1  lig       0.066538
     28 H_0r         11.7899   -0.8645   -2.7036 h9      1  lig       0.066538
     29 H_0s         13.4739   -0.6659   -2.2106 hb      1  lig       0.066538
     30 H_0t          9.7744   -0.1972   -1.4501 hd      1  lig       0.039984
     31 H_0u         10.2698    1.3637   -1.1111 he      1  lig       0.039984
     32 H_0v         10.1339    0.2754    0.2174 hf      1  lig       0.039984
     33 H_0w         10.0622   -2.1793   -1.2124 hg      1  lig       0.189908
     34 H_0x          9.9663   -4.3825   -0.3261 hh      1  lig       0.145974
     35 H_0y         13.7100   -1.4444    0.9812 hi      1  lig       0.165449
     36 H_0z         14.9558   -3.4395    1.6104 hj      1  lig       0.108317
     37 H_10         15.7951   -3.3212    3.8743 hk      1  lig       0.059098
     38 H_11         14.6645   -3.3979    5.2121 hl      1  lig       0.059098
     39 H_12         15.9431   -5.5680    4.8576 hm      1  lig       0.034114
     40 H_13         14.2113   -5.7762    4.7508 hq      1  lig       0.034114
     41 H_14         16.1982   -5.6115    2.4315 hr      1  lig       0.050109
     42 H_15         15.2512   -6.9867    2.8952 ht      1  lig       0.050109
     43 H_16         14.4370   -5.6167    0.8661 hu      1  lig       0.099867
     44 H_17         12.3917   -5.8158    3.1334 hv      1  lig       0.155230
     45 H_18         11.6528   -8.3432    3.6240 hy      1  lig       0.115931
     46 H_19         12.0628  -10.7452    2.7870 hz      1  lig       0.172803
     47 H_1a         13.5002  -10.7531    0.5568 hA      1  lig       0.203073
     48 H_1b         10.8774   -6.0654    1.1650 hB      1  lig       0.351129
@<TRIPOS>BOND
     1     1     2    1
     2     1    24    1
     3     1    25    1
     4     1    26    1
     5     2     3    1
     6     2     4    1
     7     2     5    1
     8     3    27    1
     9     3    28    1
    10     3    29    1
    11     4    30    1
    12     4    31    1
    13     4    32    1
    14     5     6    2
    15     5    10    1
    16     6     7    1
    17     6    33    1
    18     7     8    2
    19     7    34    1
    20     8     9    1
    21     8    23    1
    22     9    10    2
    23     9    11    1
    24    10    35    1
    25    11    12    1
    26    11    16    1
    27    11    36    1
    28    12    13    1
    29    13    14    1
    30    13    37    1
    31    13    38    1
    32    14    15    1
    33    14    39    1
    34    14    40    1
    35    15    16    1
    36    15    41    1
    37    15    42    1
    38    16    17    1
    39    16    43    1
    40    17    18    1
    41    17    23    1
    42    17    44    1
    43    18    19    2
    44    18    22    1
    45    19    20    1
    46    19    45    1
    47    20    21    2
    48    20    46    1
    49    21    22    1
    50    21    47    1
    51    23    48    1
