@<TRIPOS>MOLECULE
lig
  52   55 0 0 0
SMALL
NO_CHARGES


@<TRIPOS>ATOM
      1 C_00         10.5284    0.3945   -0.7005 c4      1  lig      -0.202863
      2 C_01         11.9546   -0.1757   -0.7407 c5      1  lig       0.356056
      3 C_02         12.4165   -0.1649   -2.1966 c6      1  lig      -0.314758
      4 C_03         12.8844    0.7521    0.0824 c7      1  lig      -0.184393
      5 C_04         11.8943   -1.5960   -0.1952 c8      1  lig      -0.001429
      6 C_05         10.8356   -2.4428   -0.5504 c9      1  lig      -0.224339
      7 C_06         10.7698   -3.7406   -0.0534 cb      1  lig      -0.265616
      8 C_07         11.7883   -4.2157    0.7713 ci      1  lig       0.298659
      9 C_08         12.8596   -3.3846    1.1392 cj      1  lig      -0.029276
     10 C_09         12.8744   -2.0732    0.6730 ck      1  lig      -0.236273
     11 C_0a         14.0135   -3.8879    1.9819 cm      1  lig       0.011121
     12 O_0b         13.8030   -3.4515    3.3286 o0      1  lig      -0.373088
     13 C_0c         14.8803   -3.7868    4.2124 cn      1  lig       0.034212
     14 C_0d         15.0742   -5.3209    4.2479 co      1  lig      -0.022694
     15 C_0e         15.2231   -5.9051    2.8405 cq      1  lig      -0.066467
     16 C_0f         14.1110   -5.4142    1.8892 cr      1  lig      -0.012934
     17 C_0g         12.7111   -6.0630    2.1315 cs      1  lig       0.088658
     18 C_0h         12.7590   -7.5693    2.0352 ct      1  lig       0.016316
     19 C_0i         13.2481   -8.1881    0.8802 cw      1  lig      -0.138719
     20 C_0j         13.3233   -9.5851    0.8265 cA      1  lig      -0.279586
     21 C_0k         12.9107  -10.3576    1.9488 cB      1  lig       0.312927
     22 O_0l         12.9634  -11.6728    2.0898 o1      1  lig      -0.603269
     23 C_0m         12.3943   -9.6942    3.0615 cC      1  lig      -0.169153
     24 C_0n         12.3151   -8.3134    3.1219 cD      1  lig      -0.215798
     25 N_0o         11.7105   -5.5421    1.2053 n0      1  lig      -0.648480
     26 H_0p         10.5280    1.4627   -0.8455 h0      1  lig       0.039325
     27 H_0q         10.1643    0.2463    0.2887 h6      1  lig       0.039325
     28 H_0r          9.8005   -0.0342   -1.3977 h7      1  lig       0.039325
     29 H_0s         11.5237   -0.4812   -2.7197 h8      1  lig       0.064896
     30 H_0t         13.2176   -0.8646   -2.4082 h9      1  lig       0.064896
     31 H_0u         12.7087    0.8049   -2.5906 hb      1  lig       0.064896
     32 H_0v         12.9374    1.7755   -0.3054 hd      1  lig       0.036555
     33 H_0w         13.8795    0.3348    0.0963 he      1  lig       0.036555
     34 H_0x         12.5806    0.8015    1.1253 hf      1  lig       0.036555
     35 H_0y         10.0396   -2.1260   -1.1991 hg      1  lig       0.185570
     36 H_0z          9.9353   -4.3746   -0.3205 hh      1  lig       0.142875
     37 H_10         13.7039   -1.4652    0.9955 hi      1  lig       0.169417
     38 H_11         14.9427   -3.4482    1.6054 hj      1  lig       0.103359
     39 H_12         15.7960   -3.3137    3.8697 hk      1  lig       0.060771
     40 H_13         14.6678   -3.4019    5.2085 hl      1  lig       0.060771
     41 H_14         15.9512   -5.5698    4.8485 hm      1  lig       0.029486
     42 H_15         14.2195   -5.7746    4.7481 hq      1  lig       0.029486
     43 H_16         16.1903   -5.6151    2.4214 hr      1  lig       0.029603
     44 H_17         15.2455   -6.9935    2.8950 ht      1  lig       0.029603
     45 H_18         14.4209   -5.6374    0.8659 hu      1  lig       0.076558
     46 H_19         12.3698   -5.8077    3.1400 hv      1  lig       0.129267
     47 H_1a         13.5669   -7.5944    0.0360 hy      1  lig       0.146121
     48 H_1b         13.6985  -10.0555   -0.0752 hz      1  lig       0.153552
     49 H_1c         13.1844  -12.1816    1.2794 hA      1  lig       0.436410
     50 H_1d         12.0817  -10.3093    3.8845 hB      1  lig       0.164327
     51 H_1e         11.9231   -7.8651    4.0186 hC      1  lig       0.146542
     52 H_1f         10.8078   -5.9877    1.2726 hD      1  lig       0.355140
@<TRIPOS>BOND
     1     1     2    1
     2     1    26    1
     3     1    27    1
     4     1    28    1
     5     2     3    1
     6     2     4    1
     7     2     5    1
     8     3    29    1
     9     3    30    1
    10     3    31    1
    11     4    32    1
    12     4    33    1
    13     4    34    1
    14     5     6    2
    15     5    10    1
    16     6     7    1
    17     6    35    1
    18     7     8    2
    19     7    36    1
    20     8     9    1
    21     8    25    1
    22     9    10    2
    23     9    11    1
    24    10    37    1
    25    11    12    1
    26    11    16    1
    27    11    38    1
    28    12    13    1
    29    13    14    1
    30    13    39    1
    31    13    40    1
    32    14    15    1
    33    14    41    1
    34    14    42    1
    35    15    16    1
    36    15    43    1
    37    15    44    1
    38    16    17    1
    39    16    45    1
    40    17    18    1
    41    17    25    1
    42    17    46    1
    43    18    19    2
    44    18    24    1
    45    19    20    1
    46    19    47    1
    47    20    21    2
    48    20    48    1
    49    21    22    1
    50    21    23    1
    51    22    49    1
    52    23    24    2
    53    23    50    1
    54    24    51    1
    55    25    52    1
