@<TRIPOS>MOLECULE
lig
  62   65 0 0 0
SMALL
NO_CHARGES


@<TRIPOS>ATOM
      1 C_00         16.1912   -7.7412   11.8466 c4      1  lig      -0.129946
      2 N_01         15.1910   -6.9123   11.0170 n0      1  lig      -0.032711
      3 C_02         15.9171   -5.9921   10.0050 c5      1  lig       0.034218
      4 C_03         14.8572   -5.3740    9.0989 c6      1  lig      -0.268146
      5 S_04         15.6866   -4.1881    7.8512 s0      1  lig       0.940933
      6 O_05         15.9605   -2.8994    8.4965 o0      1  lig      -0.494717
      7 O_06         16.7692   -4.9053    7.1723 o1      1  lig      -0.511992
      8 N_07         14.3931   -3.9357    6.7113 ng      1  lig      -0.587925
      9 C_08         14.7292   -3.0772    5.5493 c7      1  lig      -0.098513
     10 C_09         14.9090   -3.7899    4.1939 c8      1  lig       0.005931
     11 C_0a         15.0802   -5.3264    4.2516 c9      1  lig      -0.015237
     12 C_0b         15.2184   -5.9103    2.8356 cb      1  lig      -0.145905
     13 C_0c         14.1038   -5.4145    1.8827 ci      1  lig      -0.008947
     14 C_0d         12.7108   -6.0690    2.1214 cj      1  lig       0.023813
     15 C_0e         12.7593   -7.5926    2.0373 ck      1  lig       0.003809
     16 C_0f         12.3256   -8.3763    3.1078 cm      1  lig      -0.077062
     17 C_0g         12.4034   -9.7655    3.0228 cn      1  lig      -0.178675
     18 C_0h         12.9076  -10.3673    1.8725 co      1  lig      -0.134277
     19 C_0i         13.3297   -9.5928    0.7978 cq      1  lig      -0.152802
     20 C_0j         13.2528   -8.2067    0.8813 cr      1  lig      -0.117240
     21 N_0k         11.7374   -5.5233    1.1763 nr      1  lig      -0.538207
     22 C_0l         11.7936   -4.1831    0.7614 cs      1  lig       0.221570
     23 C_0m         10.7743   -3.7096   -0.0570 ct      1  lig      -0.246121
     24 C_0n         10.8089   -2.4050   -0.5396 cw      1  lig      -0.146220
     25 C_0o         11.8578   -1.5536   -0.1865 cA      1  lig      -0.054242
     26 C_0p         11.9038   -0.1354   -0.7457 cB      1  lig       0.545104
     27 F_0q         10.6704    0.3354   -0.9312 f0      1  lig      -0.202788
     28 F_0r         12.5538    0.6943    0.0706 f1      1  lig      -0.197870
     29 F_0s         12.5323   -0.1555   -1.9215 f2      1  lig      -0.194562
     30 C_0t         12.8594   -2.0221    0.6688 cC      1  lig      -0.201443
     31 C_0u         12.8662   -3.3440    1.1312 cD      1  lig       0.013359
     32 C_0v         14.0156   -3.8719    1.9779 cE      1  lig       0.000686
     33 O_0w         13.8095   -3.4697    3.3345 o2      1  lig      -0.307112
     34 H_0x         15.6079   -8.3192   12.5593 h0      1  lig       0.120813
     35 H_0y         16.8422   -7.0180   12.3360 h6      1  lig       0.120813
     36 H_0z         16.7252   -8.3672   11.1323 h7      1  lig       0.120813
     37 H_10         14.5471   -7.5260   10.5314 h8      1  lig       0.262310
     38 H_11         16.4848   -5.2614   10.5795 h9      1  lig       0.108676
     39 H_12         16.6028   -6.6401    9.4590 hb      1  lig       0.108676
     40 H_13         14.3005   -6.1177    8.5318 hd      1  lig       0.134446
     41 H_14         14.1328   -4.8034    9.6822 he      1  lig       0.134446
     42 H_15         13.9458   -4.8155    6.4388 hf      1  lig       0.371639
     43 H_16         13.9602   -2.3095    5.4481 hg      1  lig       0.148672
     44 H_17         15.6378   -2.5432    5.8251 hh      1  lig       0.148672
     45 H_18         15.8078   -3.3352    3.7720 hi      1  lig       0.104677
     46 H_19         15.9578   -5.5895    4.8417 hj      1  lig       0.055075
     47 H_1a         14.2267   -5.7829    4.7558 hk      1  lig       0.055075
     48 H_1b         16.1860   -5.6147    2.4228 hl      1  lig       0.064852
     49 H_1c         15.2464   -6.9974    2.8926 hm      1  lig       0.064852
     50 H_1d         14.4218   -5.6358    0.8626 hq      1  lig       0.099071
     51 H_1e         12.3662   -5.8168    3.1277 hr      1  lig       0.141023
     52 H_1f         11.9339   -7.9169    4.0042 ht      1  lig       0.094720
     53 H_1g         12.0706  -10.3738    3.8521 hu      1  lig       0.146192
     54 H_1h         12.9509  -11.4449    1.8045 hv      1  lig       0.148447
     55 H_1i         13.6962  -10.0604   -0.1030 hy      1  lig       0.151298
     56 H_1j         13.5656   -7.6086    0.0393 hz      1  lig       0.120686
     57 H_1k         10.8964   -6.0776    1.0669 hA      1  lig       0.336352
     58 H_1l          9.9514   -4.3520   -0.3355 hB      1  lig       0.159153
     59 H_1m         10.0217   -2.0639   -1.1957 hC      1  lig       0.180405
     60 H_1n         13.6843   -1.3740    0.9344 hD      1  lig       0.172478
     61 H_1o         14.9446   -3.4365    1.6004 hE      1  lig       0.116595
     62 H_1p         14.6360   -6.3283   11.6396 hF      1  lig       0.262310
@<TRIPOS>BOND
     1     1     2    1
     2     1    34    1
     3     1    35    1
     4     1    36    1
     5     2     3    1
     6     2    37    1
     7     2    62    1
     8     3     4    1
     9     3    38    1
    10     3    39    1
    11     4     5    1
    12     4    40    1
    13     4    41    1
    14     5     6    2
    15     5     7    2
    16     5     8    1
    17     8     9    1
    18     8    42    1
    19     9    10    1
    20     9    43    1
    21     9    44    1
    22    10    11    1
    23    10    33    1
    24    10    45    1
    25    11    12    1
    26    11    46    1
    27    11    47    1
    28    12    13    1
    29    12    48    1
    30    12    49    1
    31    13    14    1
    32    13    32    1
    33    13    50    1
    34    14    15    1
    35    14    21    1
    36    14    51    1
    37    15    16    2
    38    15    20    1
    39    16    17    1
    40    16    52    1
    41    17    18    2
    42    17    53    1
    43    18    19    1
    44    18    54    1
    45    19    20    2
    46    19    55    1
    47    20    56    1
    48    21    22    1
    49    21    57    1
    50    22    23    2
    51    22    31    1
    52    23    24    1
    53    23    58    1
    54    24    25    2
    55    24    59    1
    56    25    26    1
    57    25    30    1
    58    26    27    1
    59    26    28    1
    60    26    29    1
    61    30    31    2
    62    30    60    1
    63    31    32    1
    64    32    33    1
    65    32    61    1
