@<TRIPOS>MOLECULE
lig
  65   68 0 0 0
SMALL
NO_CHARGES


@<TRIPOS>ATOM
      1 C_00         13.9216   -5.2248    6.2140 c4      1  lig      -0.226206
      2 N_01         14.3931   -3.9357    6.7113 n0      1  lig      -0.206204
      3 C_02         14.7292   -3.0772    5.5493 c5      1  lig      -0.122244
      4 C_03         14.9090   -3.7899    4.1939 c6      1  lig       0.046702
      5 C_04         15.0802   -5.3264    4.2516 c7      1  lig      -0.060110
      6 C_05         15.2184   -5.9103    2.8356 c8      1  lig      -0.145748
      7 C_06         14.1038   -5.4145    1.8827 c9      1  lig       0.004602
      8 C_07         12.7108   -6.0690    2.1214 cb      1  lig       0.021465
      9 C_08         12.7593   -7.5926    2.0373 ci      1  lig      -0.008763
     10 C_09         13.2528   -8.2067    0.8813 cj      1  lig      -0.098013
     11 C_0a         13.3297   -9.5928    0.7978 ck      1  lig      -0.154118
     12 C_0b         12.9076  -10.3673    1.8725 cm      1  lig      -0.145636
     13 C_0c         12.4034   -9.7655    3.0228 cn      1  lig      -0.160389
     14 C_0d         12.3256   -8.3763    3.1078 co      1  lig      -0.084309
     15 N_0e         11.7374   -5.5233    1.1763 ng      1  lig      -0.539788
     16 C_0f         11.7936   -4.1831    0.7614 cq      1  lig       0.232988
     17 C_0g         10.7743   -3.7096   -0.0570 cr      1  lig      -0.248173
     18 C_0h         10.8089   -2.4050   -0.5396 cs      1  lig      -0.143057
     19 C_0i         11.8578   -1.5536   -0.1865 ct      1  lig      -0.061551
     20 C_0j         11.9038   -0.1354   -0.7457 cw      1  lig       0.552866
     21 F_0k         12.5538    0.6943    0.0706 f0      1  lig      -0.198492
     22 F_0l         10.6704    0.3354   -0.9312 f1      1  lig      -0.203228
     23 F_0m         12.5323   -0.1555   -1.9215 f2      1  lig      -0.200757
     24 C_0n         12.8594   -2.0221    0.6688 cA      1  lig      -0.189125
     25 C_0o         12.8662   -3.3440    1.1312 cB      1  lig       0.004409
     26 C_0p         14.0156   -3.8719    1.9779 cC      1  lig      -0.007819
     27 O_0q         13.8095   -3.4697    3.3345 o0      1  lig      -0.294519
     28 S_0r         15.6866   -4.1881    7.8512 s0      1  lig       0.589529
     29 O_0s         15.9605   -2.8994    8.4965 o1      1  lig      -0.439927
     30 O_0t         16.7692   -4.9053    7.1723 o2      1  lig      -0.432602
     31 C_0u         14.8572   -5.3740    9.0989 cD      1  lig      -0.142465
     32 C_0v         15.9171   -5.9921   10.0050 cE      1  lig       0.019068
     33 C_0w         15.3038   -6.9160   11.0151 cF      1  lig       0.016125
     34 N_0x         16.3534   -7.4821   11.8573 nr      1  lig      -0.204357
     35 H_0y         13.1126   -5.0654    5.5011 h0      1  lig       0.125888
     36 H_0z         13.5579   -5.8251    7.0480 h6      1  lig       0.125888
     37 H_10         14.7422   -5.7465    5.7215 h7      1  lig       0.125888
     38 H_11         13.9642   -2.3054    5.4592 h8      1  lig       0.129122
     39 H_12         15.6464   -2.5325    5.7827 h9      1  lig       0.129122
     40 H_13         15.8063   -3.3644    3.7396 hb      1  lig       0.093223
     41 H_14         15.9574   -5.5924    4.8413 hd      1  lig       0.078385
     42 H_15         14.2186   -5.7837    4.7374 he      1  lig       0.078385
     43 H_16         16.1824   -5.6023    2.4292 hf      1  lig       0.059919
     44 H_17         15.2504   -6.9993    2.8747 hg      1  lig       0.059919
     45 H_18         14.4142   -5.6578    0.8660 hh      1  lig       0.097320
     46 H_19         12.3696   -5.7939    3.1206 hi      1  lig       0.152637
     47 H_1a         13.5731   -7.6058    0.0429 hj      1  lig       0.113833
     48 H_1b         13.7135  -10.0635   -0.0957 hk      1  lig       0.149280
     49 H_1c         12.9663  -11.4447    1.8125 hl      1  lig       0.147089
     50 H_1d         12.0731  -10.3767    3.8503 hm      1  lig       0.140784
     51 H_1e         11.9367   -7.9121    4.0023 hq      1  lig       0.086468
     52 H_1f         10.9629   -6.1171    0.9159 hr      1  lig       0.333099
     53 H_1g          9.9574   -4.3554   -0.3440 ht      1  lig       0.156284
     54 H_1h         10.0263   -2.0526   -1.1952 hu      1  lig       0.177198
     55 H_1i         13.6706   -1.3642    0.9426 hv      1  lig       0.167415
     56 H_1j         14.9395   -3.4278    1.6031 hy      1  lig       0.110533
     57 H_1k         14.1288   -4.7959    9.6664 hz      1  lig       0.105372
     58 H_1l         14.3347   -6.1489    8.5436 hA      1  lig       0.105372
     59 H_1m         16.6439   -6.5608    9.4235 hB      1  lig       0.065421
     60 H_1n         16.4631   -5.2166   10.5437 hC      1  lig       0.065421
     61 H_1o         14.6002   -6.3607   11.6353 hD      1  lig       0.096151
     62 H_1p         14.7780   -7.7200   10.5000 hE      1  lig       0.096151
     63 H_1q         15.9405   -8.1042   12.5374 hF      1  lig       0.286093
     64 H_1r         16.8406   -6.7371   12.3345 hG      1  lig       0.286093
     65 H_1s         17.0054   -7.9967   11.2826 hH      1  lig       0.286093
@<TRIPOS>BOND
     1     1     2    1
     2     1    35    1
     3     1    36    1
     4     1    37    1
     5     2     3    1
     6     2    28    1
     7     3     4    1
     8     3    38    1
     9     3    39    1
    10     4     5    1
    11     4    27    1
    12     4    40    1
    13     5     6    1
    14     5    41    1
    15     5    42    1
    16     6     7    1
    17     6    43    1
    18     6    44    1
    19     7     8    1
    20     7    26    1
    21     7    45    1
    22     8     9    1
    23     8    15    1
    24     8    46    1
    25     9    10    2
    26     9    14    1
    27    10    11    1
    28    10    47    1
    29    11    12    2
    30    11    48    1
    31    12    13    1
    32    12    49    1
    33    13    14    2
    34    13    50    1
    35    14    51    1
    36    15    16    1
    37    15    52    1
    38    16    17    2
    39    16    25    1
    40    17    18    1
    41    17    53    1
    42    18    19    2
    43    18    54    1
    44    19    20    1
    45    19    24    1
    46    20    21    1
    47    20    22    1
    48    20    23    1
    49    24    25    2
    50    24    55    1
    51    25    26    1
    52    26    27    1
    53    26    56    1
    54    28    29    2
    55    28    30    2
    56    28    31    1
    57    31    32    1
    58    31    57    1
    59    31    58    1
    60    32    33    1
    61    32    59    1
    62    32    60    1
    63    33    34    1
    64    33    61    1
    65    33    62    1
    66    34    63    1
    67    34    64    1
    68    34    65    1
