@<TRIPOS>MOLECULE
lig
  58   61 0 0 0
SMALL
NO_CHARGES


@<TRIPOS>ATOM
      1 C_00         16.4793   -7.2843   11.3165 c4      1  lig      -0.331993
      2 C_01         15.3531   -6.5124   10.6819 c5      1  lig       0.715706
      3 O_02         14.3425   -6.2284   11.3248 o0      1  lig      -0.609818
      4 N_03         15.5705   -6.1542    9.4074 n0      1  lig      -0.571269
      5 C_04         14.6248   -5.4276    8.5868 c6      1  lig      -0.038471
      6 C_05         15.3309   -4.6310    7.4948 c7      1  lig       0.012500
      7 N_06         14.2349   -3.9683    6.6666 ng      1  lig      -0.000625
      8 C_07         14.7037   -3.0483    5.5326 c8      1  lig      -0.094680
      9 C_08         14.9054   -3.7819    4.1884 c9      1  lig       0.044028
     10 C_09         15.0841   -5.3250    4.2406 cb      1  lig      -0.066833
     11 C_0a         15.2163   -5.9084    2.8271 ci      1  lig      -0.183183
     12 C_0b         14.0959   -5.4139    1.8851 cj      1  lig      -0.004081
     13 C_0c         12.7047   -6.0683    2.1278 ck      1  lig      -0.001899
     14 C_0d         12.7518   -7.5911    2.0333 cm      1  lig       0.013105
     15 C_0e         12.3185   -8.3767    3.1031 cn      1  lig      -0.118996
     16 C_0f         12.3947   -9.7647    3.0181 co      1  lig      -0.162617
     17 C_0g         12.8984  -10.3649    1.8672 cq      1  lig      -0.118066
     18 C_0h         13.3180   -9.5891    0.7918 cr      1  lig      -0.158261
     19 C_0i         13.2433   -8.2036    0.8752 cs      1  lig      -0.096283
     20 N_0j         11.7323   -5.5141    1.1851 nr      1  lig      -0.472396
     21 C_0k         11.7964   -4.1649    0.7844 ct      1  lig       0.131897
     22 C_0l         10.7831   -3.6789   -0.0372 cw      1  lig       0.153309
     23 F_0m          9.7490   -4.4602   -0.3161 f0      1  lig      -0.183269
     24 C_0n         10.8205   -2.3838   -0.5398 cA      1  lig      -0.059000
     25 C_0o         11.8667   -1.5519   -0.1779 cB      1  lig      -0.205684
     26 Br0p         11.9398    0.2253   -0.8395 a0      1  lig      -0.024528
     27 C_0q         12.8708   -2.0181    0.6698 cC      1  lig      -0.077793
     28 C_0r         12.8692   -3.3398    1.1350 cD      1  lig      -0.004915
     29 C_0s         14.0156   -3.8713    1.9784 cE      1  lig       0.001168
     30 O_0t         13.8110   -3.4596    3.3295 o1      1  lig      -0.344308
     31 H_0u         17.2860   -7.4122   10.5963 h0      1  lig       0.120385
     32 H_0v         16.1209   -8.2634   11.6274 h6      1  lig       0.120385
     33 H_0w         16.8684   -6.7396   12.1761 h7      1  lig       0.120385
     34 H_0x         16.4618   -6.3688    8.9839 h8      1  lig       0.362322
     35 H_0y         13.9298   -6.1630    8.1684 h9      1  lig       0.111580
     36 H_0z         14.0418   -4.7470    9.2039 hb      1  lig       0.111580
     37 H_10         16.0166   -3.8888    7.8979 hd      1  lig       0.072288
     38 H_11         15.8487   -5.2672    6.7726 he      1  lig       0.072288
     39 H_12         13.6134   -4.6809    6.3124 hf      1  lig       0.232718
     40 H_13         13.8909   -2.3248    5.4758 hg      1  lig       0.117695
     41 H_14         15.5997   -2.5296    5.8821 hh      1  lig       0.117695
     42 H_15         15.8101   -3.3391    3.7698 hi      1  lig       0.113067
     43 H_16         15.9741   -5.5907    4.8114 hj      1  lig       0.054518
     44 H_17         14.2386   -5.8006    4.7402 hk      1  lig       0.054518
     45 H_18         16.1810   -5.6068    2.4136 hl      1  lig       0.090519
     46 H_19         15.2464   -6.9959    2.8761 hm      1  lig       0.090519
     47 H_1a         14.4070   -5.6435    0.8654 hq      1  lig       0.105351
     48 H_1b         12.3679   -5.8170    3.1367 hr      1  lig       0.105390
     49 H_1c         11.9257   -7.9159    3.9980 ht      1  lig       0.105348
     50 H_1d         12.0597  -10.3748    3.8454 hu      1  lig       0.150028
     51 H_1e         12.9444  -11.4421    1.8009 hv      1  lig       0.151944
     52 H_1f         13.6837  -10.0591   -0.1086 hy      1  lig       0.159632
     53 H_1g         13.5566   -7.6057    0.0323 hz      1  lig       0.116113
     54 H_1h         10.9526   -6.1058    0.9333 hA      1  lig       0.330771
     55 H_1i         10.0263   -2.0396   -1.1886 hB      1  lig       0.171834
     56 H_1j         13.6827   -1.3602    0.9293 hC      1  lig       0.140432
     57 H_1k         14.9414   -3.4345    1.5999 hD      1  lig       0.125232
     58 H_1l         13.7266   -3.3987    7.3300 hE      1  lig       0.232718
@<TRIPOS>BOND
     1     1     2    1
     2     1    31    1
     3     1    32    1
     4     1    33    1
     5     2     3    2
     6     2     4    1
     7     4     5    1
     8     4    34    1
     9     5     6    1
    10     5    35    1
    11     5    36    1
    12     6     7    1
    13     6    37    1
    14     6    38    1
    15     7     8    1
    16     7    39    1
    17     7    58    1
    18     8     9    1
    19     8    40    1
    20     8    41    1
    21     9    10    1
    22     9    30    1
    23     9    42    1
    24    10    11    1
    25    10    43    1
    26    10    44    1
    27    11    12    1
    28    11    45    1
    29    11    46    1
    30    12    13    1
    31    12    29    1
    32    12    47    1
    33    13    14    1
    34    13    20    1
    35    13    48    1
    36    14    15    2
    37    14    19    1
    38    15    16    1
    39    15    49    1
    40    16    17    2
    41    16    50    1
    42    17    18    1
    43    17    51    1
    44    18    19    2
    45    18    52    1
    46    19    53    1
    47    20    21    1
    48    20    54    1
    49    21    22    2
    50    21    28    1
    51    22    23    1
    52    22    24    1
    53    24    25    2
    54    24    55    1
    55    25    26    1
    56    25    27    1
    57    27    28    2
    58    27    56    1
    59    28    29    1
    60    29    30    1
    61    29    57    1
