@<TRIPOS>MOLECULE
lig
  42   45 0 0 0
SMALL
NO_CHARGES


@<TRIPOS>ATOM
      1 C_00         14.8892   -3.7991    4.1929 c4      1  lig       0.059939
      2 C_01         15.0808   -5.3250    4.2402 c5      1  lig      -0.020770
      3 C_02         15.2237   -5.9069    2.8274 c6      1  lig      -0.076129
      4 C_03         14.1038   -5.4118    1.8796 c7      1  lig      -0.005009
      5 C_04         12.7087   -6.0667    2.1153 c8      1  lig       0.049204
      6 C_05         12.7572   -7.5920    2.0339 c9      1  lig       0.014746
      7 C_06         12.3194   -8.3758    3.1038 cb      1  lig      -0.124325
      8 C_07         12.3980   -9.7668    3.0196 ci      1  lig      -0.154059
      9 C_08         12.9045  -10.3679    1.8688 cj      1  lig      -0.137067
     10 C_09         13.3260   -9.5931    0.7968 ck      1  lig      -0.155565
     11 C_0a         13.2504   -8.2090    0.8799 cm      1  lig      -0.109448
     12 N_0b         11.7397   -5.5251    1.1637 n0      1  lig      -0.621295
     13 C_0c         11.7924   -4.1803    0.7520 cn      1  lig       0.296007
     14 C_0d         10.7746   -3.7011   -0.0615 co      1  lig      -0.306163
     15 C_0e         10.8035   -2.4006   -0.5426 cq      1  lig      -0.154781
     16 C_0f         11.8593   -1.5510   -0.1937 cr      1  lig       0.073993
     17 C_0g         11.9084   -0.1473   -0.7566 cs      1  lig      -0.128772
     18 C_0h         12.8529   -2.0176    0.6651 ct      1  lig      -0.276380
     19 C_0i         12.8644   -3.3330    1.1272 cw      1  lig      -0.028363
     20 C_0j         14.0098   -3.8678    1.9787 cA      1  lig       0.027953
     21 O_0k         13.8065   -3.4533    3.3284 o0      1  lig      -0.372394
     22 H_0l         15.8099   -3.3288    3.8333 h0      1  lig       0.051177
     23 H_0m         14.2311   -5.7855    4.7467 h6      1  lig       0.028143
     24 H_0n         15.9615   -5.5791    4.8331 h7      1  lig       0.028143
     25 H_0o         15.2499   -6.9959    2.8809 h8      1  lig       0.031307
     26 H_0p         16.1893   -5.6105    2.4108 h9      1  lig       0.031307
     27 H_0q         14.4171   -5.6329    0.8595 hb      1  lig       0.078980
     28 H_0r         12.3631   -5.8134    3.1215 hd      1  lig       0.136718
     29 H_0s         11.9272   -7.9179    3.9995 he      1  lig       0.110035
     30 H_0t         12.0645  -10.3747    3.8484 hf      1  lig       0.138806
     31 H_0u         12.9482  -11.4455    1.8024 hg      1  lig       0.135235
     32 H_0v         13.6941  -10.0607   -0.1056 hh      1  lig       0.139370
     33 H_0w         13.5643   -7.6071    0.0381 hi      1  lig       0.117418
     34 H_0x         10.9595   -6.1267    0.9492 hj      1  lig       0.346445
     35 H_0y          9.9494   -4.3500   -0.3377 hk      1  lig       0.158638
     36 H_0z         10.0192   -2.0503   -1.1980 hl      1  lig       0.147438
     37 H_10         12.3953    0.5387   -0.0602 hm      1  lig       0.044921
     38 H_11         13.6797   -1.3606    0.9301 hq      1  lig       0.183603
     39 H_12         14.9415   -3.4345    1.6021 hr      1  lig       0.099975
     40 H_13         10.9014    0.2420   -0.9190 ht      1  lig       0.044921
     41 H_14         12.4520   -0.1379   -1.7028 hu      1  lig       0.044921
     42 H_15         14.7141   -3.3944    5.1910 hv      1  lig       0.051177
@<TRIPOS>BOND
     1     1     2    1
     2     1    21    1
     3     1    22    1
     4     1    42    1
     5     2     3    1
     6     2    23    1
     7     2    24    1
     8     3     4    1
     9     3    25    1
    10     3    26    1
    11     4     5    1
    12     4    20    1
    13     4    27    1
    14     5     6    1
    15     5    12    1
    16     5    28    1
    17     6     7    2
    18     6    11    1
    19     7     8    1
    20     7    29    1
    21     8     9    2
    22     8    30    1
    23     9    10    1
    24     9    31    1
    25    10    11    2
    26    10    32    1
    27    11    33    1
    28    12    13    1
    29    12    34    1
    30    13    14    2
    31    13    19    1
    32    14    15    1
    33    14    35    1
    34    15    16    2
    35    15    36    1
    36    16    17    1
    37    16    18    1
    38    17    37    1
    39    17    40    1
    40    17    41    1
    41    18    19    2
    42    18    38    1
    43    19    20    1
    44    20    21    1
    45    20    39    1
