@<TRIPOS>MOLECULE
lig
  52   55 0 0 0
SMALL
NO_CHARGES


@<TRIPOS>ATOM
      1 O_00         14.9398   -6.5745    8.8289 o0      1  lig      -0.625255
      2 C_01         14.5278   -5.2354    8.6990 c4      1  lig       0.102653
      3 C_02         15.2970   -4.6432    7.5290 c5      1  lig       0.044729
      4 N_03         14.2597   -3.9478    6.6599 n0      1  lig      -0.106386
      5 C_04         14.7233   -3.0473    5.5240 c6      1  lig      -0.118308
      6 C_05         14.9007   -3.7858    4.1855 c7      1  lig       0.041153
      7 C_06         15.0793   -5.3248    4.2415 c8      1  lig      -0.063927
      8 C_07         15.2121   -5.9083    2.8276 c9      1  lig      -0.241090
      9 C_08         14.0921   -5.4092    1.8855 cb      1  lig      -0.028863
     10 C_09         12.7002   -6.0672    2.1302 ci      1  lig      -0.034880
     11 C_0a         12.7513   -7.5891    2.0317 cj      1  lig       0.003320
     12 C_0b         13.2402   -8.2009    0.8726 ck      1  lig      -0.115549
     13 C_0c         13.3148   -9.5869    0.7909 cm      1  lig      -0.136104
     14 C_0d         12.8991  -10.3621    1.8687 cn      1  lig      -0.120614
     15 C_0e         12.3947   -9.7617    3.0192 co      1  lig      -0.182665
     16 C_0f         12.3191   -8.3736    3.1017 cq      1  lig      -0.074288
     17 N_0g         11.7089   -5.5107    1.2081 ng      1  lig      -0.520246
     18 C_0h         11.7887   -4.1714    0.7851 cr      1  lig       0.168845
     19 C_0i         10.7851   -3.6834   -0.0443 cs      1  lig       0.141728
     20 F_0j          9.7425   -4.4576   -0.3412 f0      1  lig      -0.175766
     21 C_0k         10.8182   -2.3939   -0.5448 ct      1  lig      -0.091458
     22 C_0l         11.8627   -1.5566   -0.1858 cw      1  lig      -0.107462
     23 Cl0m         11.9178    0.0446   -0.8143 a0      1  lig      -0.065952
     24 C_0n         12.8576   -2.0189    0.6758 cA      1  lig      -0.106844
     25 C_0o         12.8659   -3.3411    1.1370 cB      1  lig      -0.029500
     26 C_0p         14.0100   -3.8683    1.9858 cC      1  lig      -0.008175
     27 O_0q         13.8029   -3.4589    3.3367 o1      1  lig      -0.347861
     28 H_0r         14.7621   -6.8963    9.7167 h0      1  lig       0.454919
     29 H_0s         13.4445   -5.1921    8.5389 h6      1  lig       0.045411
     30 H_0t         14.7695   -4.6581    9.5903 h7      1  lig       0.045411
     31 H_0u         16.0064   -3.8769    7.8397 h8      1  lig       0.099503
     32 H_0v         15.7569   -5.4005    6.8992 h9      1  lig       0.099503
     33 H_0w         13.6953   -4.6762    6.2499 hb      1  lig       0.252067
     34 H_0x         13.8991   -2.3346    5.4864 hd      1  lig       0.133517
     35 H_0y         15.6255   -2.5530    5.8731 he      1  lig       0.133517
     36 H_0z         15.7943   -3.3455    3.7481 hf      1  lig       0.125698
     37 H_10         15.9690   -5.5846    4.8129 hg      1  lig       0.060726
     38 H_11         14.2339   -5.7908    4.7491 hh      1  lig       0.060726
     39 H_12         16.1789   -5.6110    2.4141 hi      1  lig       0.116165
     40 H_13         15.2359   -6.9961    2.8742 hj      1  lig       0.116165
     41 H_14         14.3995   -5.6237    0.8615 hk      1  lig       0.125770
     42 H_15         12.3710   -5.8212    3.1419 hl      1  lig       0.184634
     43 H_16         13.5515   -7.6017    0.0296 hm      1  lig       0.125290
     44 H_17         13.6844  -10.0576   -0.1073 hq      1  lig       0.152452
     45 H_18         12.9569  -11.4391    1.8078 hr      1  lig       0.153577
     46 H_19         12.0632  -10.3709    3.8491 ht      1  lig       0.158631
     47 H_1a         11.9276   -7.9067    3.9936 hu      1  lig       0.079727
     48 H_1b         10.8156   -5.9913    1.1612 hv      1  lig       0.345999
     49 H_1c         10.0246   -2.0468   -1.1894 hy      1  lig       0.182583
     50 H_1d         13.6495   -1.3525    0.9762 hz      1  lig       0.152882
     51 H_1e         14.9406   -3.4307    1.6172 hA      1  lig       0.141825
     52 H_1f         13.7207   -3.3716    7.2905 hB      1  lig       0.252067
@<TRIPOS>BOND
     1     1     2    1
     2     1    28    1
     3     2     3    1
     4     2    29    1
     5     2    30    1
     6     3     4    1
     7     3    31    1
     8     3    32    1
     9     4     5    1
    10     4    33    1
    11     4    52    1
    12     5     6    1
    13     5    34    1
    14     5    35    1
    15     6     7    1
    16     6    27    1
    17     6    36    1
    18     7     8    1
    19     7    37    1
    20     7    38    1
    21     8     9    1
    22     8    39    1
    23     8    40    1
    24     9    10    1
    25     9    26    1
    26     9    41    1
    27    10    11    1
    28    10    17    1
    29    10    42    1
    30    11    12    2
    31    11    16    1
    32    12    13    1
    33    12    43    1
    34    13    14    2
    35    13    44    1
    36    14    15    1
    37    14    45    1
    38    15    16    2
    39    15    46    1
    40    16    47    1
    41    17    18    1
    42    17    48    1
    43    18    19    2
    44    18    25    1
    45    19    20    1
    46    19    21    1
    47    21    22    2
    48    21    49    1
    49    22    23    1
    50    22    24    1
    51    24    25    2
    52    24    50    1
    53    25    26    1
    54    26    27    1
    55    26    51    1
