@<TRIPOS>MOLECULE
lig
  62   65 0 0 0
SMALL
NO_CHARGES


@<TRIPOS>ATOM
      1 C_00         16.1912   -7.7412   11.8466 c4      1  lig      -0.302712
      2 N_01         15.1910   -6.9123   11.0170 n0      1  lig      -0.021196
      3 C_02         14.3191   -7.8539   10.3207 c5      1  lig      -0.218620
      4 C_03         15.9171   -5.9921   10.0050 c6      1  lig      -0.059041
      5 C_04         14.8572   -5.3740    9.0989 c7      1  lig      -0.211505
      6 S_05         15.6866   -4.1881    7.8512 s0      1  lig       0.894167
      7 O_06         15.9605   -2.8994    8.4965 o0      1  lig      -0.483682
      8 O_07         16.7692   -4.9053    7.1723 o1      1  lig      -0.513152
      9 N_08         14.3931   -3.9357    6.7113 ng      1  lig      -0.595664
     10 C_09         14.7292   -3.0772    5.5493 c8      1  lig      -0.065974
     11 C_0a         14.9090   -3.7899    4.1939 c9      1  lig       0.034542
     12 C_0b         15.0802   -5.3264    4.2516 cb      1  lig      -0.044797
     13 C_0c         15.2184   -5.9103    2.8356 ci      1  lig      -0.147064
     14 C_0d         14.1038   -5.4145    1.8827 cj      1  lig      -0.009881
     15 C_0e         12.7108   -6.0690    2.1214 ck      1  lig       0.005613
     16 C_0f         12.7593   -7.5926    2.0373 cm      1  lig       0.016845
     17 C_0g         12.3256   -8.3763    3.1078 cn      1  lig      -0.095659
     18 C_0h         12.4034   -9.7655    3.0228 co      1  lig      -0.183259
     19 C_0i         12.9076  -10.3673    1.8725 cq      1  lig      -0.120932
     20 C_0j         13.3297   -9.5928    0.7978 cr      1  lig      -0.168769
     21 C_0k         13.2528   -8.2067    0.8813 cs      1  lig      -0.097073
     22 N_0l         11.7374   -5.5233    1.1763 nr      1  lig      -0.486857
     23 C_0m         11.7936   -4.1831    0.7614 ct      1  lig       0.154585
     24 C_0n         10.7743   -3.7096   -0.0570 cw      1  lig       0.132490
     25 F_0o          9.7529   -4.5301   -0.4068 f0      1  lig      -0.183319
     26 C_0p         10.8089   -2.4050   -0.5396 cA      1  lig      -0.089559
     27 C_0q         11.8578   -1.5536   -0.1865 cB      1  lig      -0.078437
     28 Cl0r         11.9057    0.0650   -0.7794 a0      1  lig      -0.094105
     29 C_0s         12.8594   -2.0221    0.6688 cC      1  lig      -0.133707
     30 C_0t         12.8662   -3.3440    1.1312 cD      1  lig      -0.042933
     31 C_0u         14.0156   -3.8719    1.9779 cE      1  lig       0.007351
     32 O_0v         13.8095   -3.4697    3.3345 o2      1  lig      -0.321055
     33 H_0w         15.6635   -8.3780   12.5584 h0      1  lig       0.168819
     34 H_0x         16.8639   -7.0917   12.4097 h6      1  lig       0.168819
     35 H_0y         16.7956   -8.3831   11.2033 h7      1  lig       0.168819
     36 H_0z         14.9112   -8.4558    9.6313 h8      1  lig       0.149930
     37 H_10         13.5612   -7.3034    9.7634 h9      1  lig       0.149930
     38 H_11         13.8340   -8.5055   11.0474 hb      1  lig       0.149930
     39 H_12         16.4788   -5.2144   10.5267 hd      1  lig       0.143757
     40 H_13         16.6310   -6.5641    9.4086 he      1  lig       0.143757
     41 H_14         14.3317   -6.1203    8.5046 hf      1  lig       0.128891
     42 H_15         14.1257   -4.7632    9.6310 hg      1  lig       0.128891
     43 H_16         14.0692   -4.8219    6.3319 hh      1  lig       0.381179
     44 H_17         13.9634   -2.3059    5.4562 hi      1  lig       0.133253
     45 H_18         15.6452   -2.5288    5.7797 hj      1  lig       0.133253
     46 H_19         15.8059   -3.3643    3.7387 hk      1  lig       0.099917
     47 H_1a         15.9589   -5.5929    4.8383 hl      1  lig       0.064339
     48 H_1b         14.2174   -5.7845    4.7339 hm      1  lig       0.064339
     49 H_1c         16.1814   -5.6012    2.4271 hq      1  lig       0.065399
     50 H_1d         15.2511   -6.9994    2.8712 hr      1  lig       0.065399
     51 H_1e         14.4140   -5.6583    0.8657 ht      1  lig       0.101186
     52 H_1f         12.3674   -5.7942    3.1196 hu      1  lig       0.143302
     53 H_1g         11.9279   -7.9120    3.9977 hv      1  lig       0.110600
     54 H_1h         12.0653  -10.3792    3.8449 hy      1  lig       0.144949
     55 H_1i         12.9611  -11.4448    1.8082 hz      1  lig       0.144330
     56 H_1j         13.7098  -10.0636   -0.0974 hA      1  lig       0.154367
     57 H_1k         13.5699   -7.6070    0.0406 hB      1  lig       0.110186
     58 H_1l         10.9548   -6.0948    0.8815 hC      1  lig       0.325624
     59 H_1m         10.0204   -2.0535   -1.1875 hD      1  lig       0.169567
     60 H_1n         13.6663   -1.3598    0.9462 hE      1  lig       0.165554
     61 H_1o         14.9393   -3.4276    1.6025 hF      1  lig       0.124975
     62 H_1p         14.6358   -6.3567   11.6552 hG      1  lig       0.320098
@<TRIPOS>BOND
     1     1     2    1
     2     1    33    1
     3     1    34    1
     4     1    35    1
     5     2     3    1
     6     2     4    1
     7     2    62    1
     8     3    36    1
     9     3    37    1
    10     3    38    1
    11     4     5    1
    12     4    39    1
    13     4    40    1
    14     5     6    1
    15     5    41    1
    16     5    42    1
    17     6     7    2
    18     6     8    2
    19     6     9    1
    20     9    10    1
    21     9    43    1
    22    10    11    1
    23    10    44    1
    24    10    45    1
    25    11    12    1
    26    11    32    1
    27    11    46    1
    28    12    13    1
    29    12    47    1
    30    12    48    1
    31    13    14    1
    32    13    49    1
    33    13    50    1
    34    14    15    1
    35    14    31    1
    36    14    51    1
    37    15    16    1
    38    15    22    1
    39    15    52    1
    40    16    17    2
    41    16    21    1
    42    17    18    1
    43    17    53    1
    44    18    19    2
    45    18    54    1
    46    19    20    1
    47    19    55    1
    48    20    21    2
    49    20    56    1
    50    21    57    1
    51    22    23    1
    52    22    58    1
    53    23    24    2
    54    23    30    1
    55    24    25    1
    56    24    26    1
    57    26    27    2
    58    26    59    1
    59    27    28    1
    60    27    29    1
    61    29    30    2
    62    29    60    1
    63    30    31    1
    64    31    32    1
    65    31    61    1
