@<TRIPOS>MOLECULE
lig
  48   51 0 0 0
SMALL
NO_CHARGES


@<TRIPOS>ATOM
      1 N_00         14.3165   -4.0041    6.7057 n0      1  lig      -0.209150
      2 C_01         14.6800   -3.0520    5.5568 c4      1  lig      -0.071108
      3 C_02         14.9014   -3.7767    4.2034 c5      1  lig       0.040529
      4 C_03         15.0794   -5.3204    4.2560 c6      1  lig      -0.069392
      5 C_04         15.2134   -5.9116    2.8388 c7      1  lig      -0.177682
      6 C_05         14.1000   -5.4138    1.8842 c8      1  lig      -0.011334
      7 C_06         12.7075   -6.0661    2.1333 c9      1  lig       0.020796
      8 C_07         12.7523   -7.5906    2.0360 cb      1  lig       0.007708
      9 C_08         12.3188   -8.3771    3.1048 ci      1  lig      -0.144034
     10 C_09         12.4038   -9.7653    3.0219 cj      1  lig      -0.147835
     11 C_0a         12.9145  -10.3670    1.8742 ck      1  lig      -0.111992
     12 C_0b         13.3307   -9.5915    0.7997 cm      1  lig      -0.152502
     13 C_0c         13.2510   -8.2048    0.8812 cn      1  lig      -0.101019
     14 N_0d         11.7043   -5.5100    1.2252 ng      1  lig      -0.493302
     15 C_0e         11.7866   -4.1781    0.7837 co      1  lig       0.195486
     16 C_0f         10.7799   -3.7112   -0.0569 cq      1  lig      -0.259020
     17 C_0g         10.8200   -2.4096   -0.5450 cr      1  lig      -0.115281
     18 C_0h         11.8586   -1.5528   -0.1813 cs      1  lig      -0.061813
     19 C_0i         11.9069   -0.1362   -0.7423 ct      1  lig       0.537350
     20 F_0j         12.5326   -0.1571   -1.9193 f0      1  lig      -0.183543
     21 F_0k         10.6732    0.3298   -0.9284 f1      1  lig      -0.194271
     22 F_0l         12.5588    0.6950    0.0707 f2      1  lig      -0.192896
     23 C_0m         12.8553   -2.0181    0.6851 cw      1  lig      -0.195789
     24 C_0n         12.8601   -3.3413    1.1433 cA      1  lig       0.031366
     25 C_0o         14.0134   -3.8725    1.9818 cB      1  lig      -0.002861
     26 O_0p         13.8054   -3.4743    3.3377 o0      1  lig      -0.345220
     27 H_0q         14.1083   -3.4755    7.5374 h0      1  lig       0.279709
     28 H_0r         15.0831   -4.6260    6.9124 h6      1  lig       0.279709
     29 H_0s         13.8569   -2.3375    5.5186 h7      1  lig       0.130437
     30 H_0t         15.5810   -2.5393    5.9003 h8      1  lig       0.130437
     31 H_0u         15.8116   -3.3319    3.7907 h9      1  lig       0.124351
     32 H_0v         15.9615   -5.5868    4.8374 hb      1  lig       0.059301
     33 H_0w         14.2305   -5.7943    4.7513 hd      1  lig       0.059301
     34 H_0x         16.1803   -5.6225    2.4218 he      1  lig       0.094621
     35 H_0y         15.2376   -7.0003    2.8944 hf      1  lig       0.094621
     36 H_0z         14.4183   -5.6311    0.8642 hg      1  lig       0.108040
     37 H_10         12.3776   -5.8170    3.1448 hh      1  lig       0.094460
     38 H_11         11.9279   -7.9184    4.0017 hi      1  lig       0.108297
     39 H_12         12.0698  -10.3730    3.8508 hj      1  lig       0.151310
     40 H_13         12.9571  -11.4450    1.8081 hk      1  lig       0.150047
     41 H_14         13.7008  -10.0609   -0.1014 hl      1  lig       0.157753
     42 H_15         13.5635   -7.6082    0.0379 hm      1  lig       0.118267
     43 H_16         10.7857   -5.9114    1.3751 hq      1  lig       0.336748
     44 H_17          9.9547   -4.3494   -0.3318 hr      1  lig       0.170706
     45 H_18         10.0333   -2.0723   -1.2046 ht      1  lig       0.184737
     46 H_19         13.6741   -1.3662    0.9573 hu      1  lig       0.164782
     47 H_1a         14.9381   -3.4355    1.5965 hv      1  lig       0.129466
     48 H_1b         13.5054   -4.5515    6.4618 hy      1  lig       0.279709
@<TRIPOS>BOND
     1     1     2    1
     2     1    27    1
     3     1    28    1
     4     1    48    1
     5     2     3    1
     6     2    29    1
     7     2    30    1
     8     3     4    1
     9     3    26    1
    10     3    31    1
    11     4     5    1
    12     4    32    1
    13     4    33    1
    14     5     6    1
    15     5    34    1
    16     5    35    1
    17     6     7    1
    18     6    25    1
    19     6    36    1
    20     7     8    1
    21     7    14    1
    22     7    37    1
    23     8     9    2
    24     8    13    1
    25     9    10    1
    26     9    38    1
    27    10    11    2
    28    10    39    1
    29    11    12    1
    30    11    40    1
    31    12    13    2
    32    12    41    1
    33    13    42    1
    34    14    15    1
    35    14    43    1
    36    15    16    2
    37    15    24    1
    38    16    17    1
    39    16    44    1
    40    17    18    2
    41    17    45    1
    42    18    19    1
    43    18    23    1
    44    19    20    1
    45    19    21    1
    46    19    22    1
    47    23    24    2
    48    23    46    1
    49    24    25    1
    50    25    26    1
    51    25    47    1
