@<TRIPOS>MOLECULE
lig
  60   63 0 0 0
SMALL
NO_CHARGES


@<TRIPOS>ATOM
      1 C_00         15.2901   -4.6437    7.5383 c4      1  lig      -0.042443
      2 N_01         14.2345   -3.9601    6.6829 n0      1  lig      -0.045808
      3 C_02         14.7221   -3.0583    5.5490 c5      1  lig      -0.143782
      4 C_03         14.8999   -3.7840    4.1926 c6      1  lig       0.046152
      5 C_04         15.0700   -5.3255    4.2383 c7      1  lig      -0.068750
      6 C_05         15.2153   -5.9091    2.8263 c8      1  lig      -0.202837
      7 C_06         14.0983   -5.4050    1.8842 c9      1  lig       0.001782
      8 C_07         12.7057   -6.0670    2.1305 cb      1  lig       0.025842
      9 C_08         12.7531   -7.5892    2.0317 ci      1  lig       0.012612
     10 C_09         12.3225   -8.3747    3.1029 cj      1  lig      -0.116047
     11 C_0a         12.3958   -9.7629    3.0192 ck      1  lig      -0.163554
     12 C_0b         12.8972  -10.3629    1.8676 cm      1  lig      -0.114194
     13 C_0c         13.3187   -9.5874    0.7926 cn      1  lig      -0.154293
     14 C_0d         13.2445   -8.2014    0.8739 co      1  lig      -0.109777
     15 N_0e         11.6991   -5.5133    1.2256 ng      1  lig      -0.569114
     16 C_0f         11.7858   -4.1845    0.7833 cq      1  lig       0.219454
     17 C_0g         10.7712   -3.7187   -0.0475 cr      1  lig      -0.238917
     18 C_0h         10.8197   -2.4274   -0.5442 cs      1  lig      -0.220170
     19 C_0i         11.8648   -1.5641   -0.1926 ct      1  lig       0.004309
     20 C_0j         11.9169   -0.1315   -0.7463 cw      1  lig       0.329347
     21 C_0k         12.7557   -0.1019   -2.0369 cA      1  lig      -0.211878
     22 C_0l         12.5803    0.8318    0.2570 cB      1  lig      -0.320409
     23 C_0m         10.4805    0.3432   -1.0380 cC      1  lig      -0.392902
     24 C_0n         12.8556   -2.0349    0.6769 cD      1  lig      -0.226316
     25 C_0o         12.8619   -3.3505    1.1396 cE      1  lig       0.010139
     26 C_0p         14.0087   -3.8650    1.9951 cF      1  lig       0.004410
     27 O_0q         13.7947   -3.4627    3.3473 o0      1  lig      -0.353713
     28 H_0r         14.6735   -5.1814    8.2598 h0      1  lig       0.088711
     29 H_0s         15.8828   -3.8437    7.9841 h6      1  lig       0.088711
     30 H_0t         15.8509   -5.3019    6.8818 h7      1  lig       0.088711
     31 H_0u         13.6389   -4.6718    6.2894 h8      1  lig       0.250798
     32 H_0v         13.9254   -2.3118    5.5211 h9      1  lig       0.135733
     33 H_0w         15.6389   -2.6096    5.9280 hb      1  lig       0.135733
     34 H_0x         15.7954   -3.3483    3.7468 hd      1  lig       0.122925
     35 H_0y         15.9375   -5.6020    4.8343 he      1  lig       0.060748
     36 H_0z         14.2035   -5.7885    4.7085 hf      1  lig       0.060748
     37 H_10         16.1861   -5.6234    2.4153 hg      1  lig       0.097718
     38 H_11         15.2297   -6.9971    2.8750 hh      1  lig       0.097718
     39 H_12         14.4101   -5.6090    0.8598 hi      1  lig       0.109423
     40 H_13         12.3692   -5.8348    3.1428 hj      1  lig       0.098366
     41 H_14         11.9399   -7.9122    4.0011 hk      1  lig       0.097809
     42 H_15         12.0683  -10.3730    3.8497 hl      1  lig       0.151579
     43 H_16         12.9497  -11.4400    1.8049 hm      1  lig       0.149103
     44 H_17         13.6958  -10.0580   -0.1024 hq      1  lig       0.156619
     45 H_18         13.5651   -7.6033    0.0339 hr      1  lig       0.123921
     46 H_19         10.7785   -5.9107    1.3696 ht      1  lig       0.350561
     47 H_1a          9.9359   -4.3468   -0.3168 hu      1  lig       0.157893
     48 H_1b         10.0178   -2.1019   -1.1900 hv      1  lig       0.200213
     49 H_1c         12.9019    0.9045   -2.4236 hy      1  lig       0.057580
     50 H_1d         12.2955   -0.6969   -2.8131 hz      1  lig       0.057580
     51 H_1e         13.7493   -0.5034   -1.8678 hA      1  lig       0.057580
     52 H_1f         13.6597    0.7317    0.2362 hB      1  lig       0.081434
     53 H_1g         12.3141    0.5827    1.2765 hC      1  lig       0.081434
     54 H_1h         12.3525    1.8791    0.0573 hD      1  lig       0.081434
     55 H_1i         10.3454    1.4034   -1.0795 hE      1  lig       0.096088
     56 H_1j          9.7702    0.0204   -0.3014 hF      1  lig       0.096088
     57 H_1k         10.1013   -0.0683   -1.9475 hG      1  lig       0.096088
     58 H_1l         13.6541   -1.3803    0.9921 hH      1  lig       0.139312
     59 H_1m         14.9440   -3.4101    1.6563 hI      1  lig       0.121700
     60 H_1n         13.7216   -3.3684    7.3194 hJ      1  lig       0.250798
@<TRIPOS>BOND
     1     1     2    1
     2     1    28    1
     3     1    29    1
     4     1    30    1
     5     2     3    1
     6     2    31    1
     7     2    60    1
     8     3     4    1
     9     3    32    1
    10     3    33    1
    11     4     5    1
    12     4    27    1
    13     4    34    1
    14     5     6    1
    15     5    35    1
    16     5    36    1
    17     6     7    1
    18     6    37    1
    19     6    38    1
    20     7     8    1
    21     7    26    1
    22     7    39    1
    23     8     9    1
    24     8    15    1
    25     8    40    1
    26     9    10    2
    27     9    14    1
    28    10    11    1
    29    10    41    1
    30    11    12    2
    31    11    42    1
    32    12    13    1
    33    12    43    1
    34    13    14    2
    35    13    44    1
    36    14    45    1
    37    15    16    1
    38    15    46    1
    39    16    17    2
    40    16    25    1
    41    17    18    1
    42    17    47    1
    43    18    19    2
    44    18    48    1
    45    19    20    1
    46    19    24    1
    47    20    21    1
    48    20    22    1
    49    20    23    1
    50    21    49    1
    51    21    50    1
    52    21    51    1
    53    22    52    1
    54    22    53    1
    55    22    54    1
    56    23    55    1
    57    23    56    1
    58    23    57    1
    59    24    25    2
    60    24    58    1
    61    25    26    1
    62    26    27    1
    63    26    59    1
