@<TRIPOS>MOLECULE
lig
  59   63 0 0 0
SMALL
NO_CHARGES


@<TRIPOS>ATOM
      1 C_00         29.4571    8.7056   -6.8619 c4      1  lig      -0.014756
      2 N_01         28.7407    8.3611   -5.7437 n0      1  lig      -0.157297
      3 C_02         28.7337    7.1523   -5.3141 c5      1  lig       0.293960
      4 N_03         29.4016    6.1864   -6.0186 ng      1  lig      -0.220255
      5 C_04         30.1186    6.3785   -7.1563 c6      1  lig       0.358319
      6 C_05         30.1789    7.7855   -7.5948 c7      1  lig       0.035910
      7 N_06         29.4293   10.0600   -7.1394 nr      1  lig      -0.069079
      8 O_07         30.6222    5.4054   -7.7088 o0      1  lig      -0.515297
      9 C_08         31.0382    8.1626   -8.7615 c8      1  lig       0.012464
     10 C_09         28.9256   11.1732   -6.3380 c9      1  lig       0.077448
     11 C_0a         29.8374   11.5371   -5.1605 cb      1  lig       0.184424
     12 C_0b         29.3667   12.9504   -4.7665 ci      1  lig       0.255169
     13 C_0c         29.0113   13.6306   -6.1146 cj      1  lig      -0.030813
     14 C_0d         28.8745   12.4793   -7.1433 ck      1  lig      -0.256051
     15 O_0e         29.8087   10.5879   -4.1140 o1      1  lig      -0.676746
     16 O_0f         28.2564   12.9415   -3.8813 o2      1  lig      -0.716650
     17 C_0g         30.0392   14.7118   -6.5198 cm      1  lig       0.063154
     18 O_0h         29.7276   15.2869   -7.7721 o3      1  lig      -0.650481
     19 S_0i         32.3853    7.1819   -9.3591 s0      1  lig      -0.047003
     20 C_0j         32.8630    8.5158  -10.3947 cn      1  lig       0.082962
     21 C_0k         31.9328    9.5657  -10.2410 co      1  lig       0.087847
     22 N_0l         30.9258    9.3164   -9.3705 nw      1  lig      -0.155430
     23 C_0m         33.9624    8.6519  -11.2481 cq      1  lig      -0.210158
     24 C_0n         34.1278    9.8600  -11.9235 cr      1  lig      -0.197047
     25 C_0o         33.2225   10.9031  -11.7660 cs      1  lig      -0.121800
     26 C_0p         32.1098   10.7680  -10.9388 ct      1  lig      -0.193424
     27 H_0q         29.3697    5.2384   -5.6788 h0      1  lig       0.282806
     28 H_0r         30.0840   10.3708   -7.8442 h6      1  lig       0.000123
     29 H_0s         27.9302   10.9504   -5.9479 h7      1  lig       0.040703
     30 H_0t         30.8632   11.6091   -5.5306 h8      1  lig       0.015830
     31 H_0u         30.1739   13.4728   -4.2504 h9      1  lig       0.012217
     32 H_0v         28.0446   14.1298   -6.0173 hb      1  lig       0.092533
     33 H_0w         29.7061   12.5125   -7.8524 hd      1  lig       0.131410
     34 H_0x         27.9593   12.5555   -7.7315 he      1  lig       0.131410
     35 H_0y         29.6657    9.7231   -4.5132 hf      1  lig       0.369170
     36 H_0z         28.5058   12.4569   -3.0862 hg      1  lig       0.457436
     37 H_10         30.0706   15.5071   -5.7746 hh      1  lig       0.078456
     38 H_11         31.0395   14.2837   -6.5787 hi      1  lig       0.078456
     39 H_12         28.9283   15.8146   -7.6747 hj      1  lig       0.405233
     40 H_13         34.6740    7.8498  -11.3709 hk      1  lig       0.191874
     41 H_14         34.9744    9.9974  -12.5784 hl      1  lig       0.147905
     42 H_15         33.3931   11.8332  -12.2856 hm      1  lig       0.140031
     43 H_16         31.4194   11.5899  -10.8164 hq      1  lig       0.143658
     44 N_17         28.0392    6.8512   -4.1137 nA      1  lig      -0.339000
     45 C_18         26.9656    7.7147   -3.6006 cw      1  lig       0.047276
     46 C_19         26.9598    7.7384   -2.0617 cA      1  lig       0.080095
     47 C_1a         26.9170    6.4183   -1.5310 cB      1  lig       0.059166
     48 C_1b         27.9800    5.5894   -1.9881 cC      1  lig       0.039948
     49 C_1c         27.9912    5.5051   -3.5273 cD      1  lig       0.001486
     50 H_1d         26.0035    7.3584   -3.9711 hr      1  lig       0.031778
     51 H_1e         27.0634    8.7388   -3.9600 ht      1  lig       0.031778
     52 H_1f         26.0828    8.2835   -1.7143 hu      1  lig      -0.001819
     53 H_1g         27.8280    8.2775   -1.6784 hv      1  lig      -0.001819
     54 H_1h         27.8603    4.5932   -1.5614 hy      1  lig       0.004003
     55 H_1i         28.9341    5.9687   -1.6192 hz      1  lig       0.004003
     56 H_1j         28.8511    4.9068   -3.8285 hA      1  lig       0.067132
     57 H_1k         27.1063    4.9760   -3.8833 hB      1  lig       0.067132
     58 H_1l         25.9630    5.9567   -1.7859 hC      1  lig      -0.014890
     59 H_1m         26.9373    6.4652   -0.4422 hD      1  lig      -0.014890
@<TRIPOS>BOND
     1     1     2    1
     2     1     6    2
     3     1     7    1
     4     2     3    2
     5     3     4    1
     6     3    44    1
     7     4     5    1
     8     4    27    1
     9     5     6    1
    10     5     8    2
    11     6     9    1
    12     7    10    1
    13     7    28    1
    14     9    19    1
    15     9    22    2
    16    10    11    1
    17    10    14    1
    18    10    29    1
    19    11    12    1
    20    11    15    1
    21    11    30    1
    22    12    13    1
    23    12    16    1
    24    12    31    1
    25    13    14    1
    26    13    17    1
    27    13    32    1
    28    14    33    1
    29    14    34    1
    30    15    35    1
    31    16    36    1
    32    17    18    1
    33    17    37    1
    34    17    38    1
    35    18    39    1
    36    19    20    1
    37    20    21    2
    38    20    23    1
    39    21    22    1
    40    21    26    1
    41    23    24    2
    42    23    40    1
    43    24    25    1
    44    24    41    1
    45    25    26    2
    46    25    42    1
    47    26    43    1
    48    44    45    1
    49    44    49    1
    50    45    46    1
    51    45    50    1
    52    45    51    1
    53    46    47    1
    54    46    52    1
    55    46    53    1
    56    47    48    1
    57    47    58    1
    58    47    59    1
    59    48    49    1
    60    48    54    1
    61    48    55    1
    62    49    56    1
    63    49    57    1
