@<TRIPOS>MOLECULE
lig
  61   65 0 0 0
SMALL
NO_CHARGES


@<TRIPOS>ATOM
      1 C_00         29.4571    8.7055   -6.8619 c4      1  lig      -0.005447
      2 N_01         28.7408    8.3611   -5.7438 n0      1  lig      -0.159895
      3 C_02         28.7296    7.1481   -5.3147 c5      1  lig       0.293734
      4 N_03         29.4016    6.1865   -6.0186 ng      1  lig      -0.239630
      5 C_04         30.1186    6.3786   -7.1563 c6      1  lig       0.370511
      6 C_05         30.1787    7.7859   -7.5941 c7      1  lig       0.033965
      7 N_06         29.4294   10.0599   -7.1395 nr      1  lig      -0.079339
      8 O_07         30.6213    5.4070   -7.7094 o0      1  lig      -0.516687
      9 C_08         31.0381    8.1621   -8.7624 c8      1  lig       0.012283
     10 C_09         28.9256   11.1732   -6.3379 c9      1  lig       0.071355
     11 C_0a         29.8375   11.5371   -5.1605 cb      1  lig       0.236527
     12 C_0b         29.3667   12.9504   -4.7665 ci      1  lig       0.253050
     13 C_0c         29.0113   13.6306   -6.1146 cj      1  lig      -0.034949
     14 C_0d         28.8745   12.4793   -7.1433 ck      1  lig      -0.239823
     15 O_0e         29.8086   10.5878   -4.1140 o1      1  lig      -0.707034
     16 O_0f         28.2564   12.9415   -3.8813 o2      1  lig      -0.709905
     17 C_0g         30.0392   14.7118   -6.5198 cm      1  lig       0.058381
     18 O_0h         29.7276   15.2869   -7.7721 o3      1  lig      -0.647555
     19 S_0i         32.3853    7.1819   -9.3591 s0      1  lig      -0.047694
     20 C_0j         32.8630    8.5158  -10.3947 cn      1  lig       0.081318
     21 C_0k         31.9328    9.5657  -10.2410 co      1  lig       0.093925
     22 N_0l         30.9258    9.3164   -9.3705 nw      1  lig      -0.160934
     23 C_0m         33.9624    8.6519  -11.2481 cq      1  lig      -0.210703
     24 C_0n         34.1278    9.8600  -11.9235 cr      1  lig      -0.191038
     25 C_0o         33.2225   10.9031  -11.7660 cs      1  lig      -0.124053
     26 C_0p         32.1098   10.7680  -10.9388 ct      1  lig      -0.193634
     27 H_0q         29.3698    5.2384   -5.6789 h0      1  lig       0.287167
     28 H_0r         30.0840   10.3708   -7.8442 h6      1  lig       0.004979
     29 H_0s         27.9302   10.9504   -5.9480 h7      1  lig       0.037751
     30 H_0t         30.8632   11.6092   -5.5306 h8      1  lig       0.003849
     31 H_0u         30.1739   13.4728   -4.2504 h9      1  lig       0.010668
     32 H_0v         28.0446   14.1298   -6.0173 hb      1  lig       0.092502
     33 H_0w         29.7061   12.5125   -7.8524 hd      1  lig       0.126525
     34 H_0x         27.9593   12.5555   -7.7315 he      1  lig       0.126525
     35 H_0y         29.6657    9.7230   -4.5133 hf      1  lig       0.359399
     36 H_0z         28.5058   12.4569   -3.0862 hg      1  lig       0.448293
     37 H_10         30.0706   15.5071   -5.7746 hh      1  lig       0.078292
     38 H_11         31.0395   14.2837   -6.5787 hi      1  lig       0.078292
     39 H_12         28.9283   15.8146   -7.6747 hj      1  lig       0.405056
     40 H_13         34.6740    7.8498  -11.3709 hk      1  lig       0.191552
     41 H_14         34.9744    9.9974  -12.5784 hl      1  lig       0.145332
     42 H_15         33.3931   11.8332  -12.2856 hm      1  lig       0.140044
     43 H_16         31.4194   11.5899  -10.8164 hq      1  lig       0.143491
     44 N_17         28.0299    6.8280   -4.1070 nA      1  lig      -0.271597
     45 C_18         26.9702    7.7126   -3.5835 cw      1  lig      -0.041519
     46 C_19         26.9423    7.8172   -2.0626 cA      1  lig       0.020226
     47 N_1a         26.8648    6.3883   -1.4818 nB      1  lig      -0.335159
     48 C_1b         27.9972    5.4834   -2.0104 cB      1  lig       0.006565
     49 C_1c         27.9822    5.4709   -3.5477 cC      1  lig      -0.077407
     50 H_1d         25.9999    7.3491   -3.9215 hr      1  lig       0.076807
     51 H_1e         27.0778    8.7236   -3.9807 ht      1  lig       0.076807
     52 H_1f         26.0632    8.3730   -1.7210 hu      1  lig       0.083218
     53 H_1g         27.8350    8.3252   -1.6890 hv      1  lig       0.083218
     54 H_1h         27.8868    4.4835   -1.5850 hy      1  lig       0.070898
     55 H_1i         28.9169    5.9012   -1.6202 hz      1  lig       0.070898
     56 H_1j         28.8385    4.8830   -3.8795 hA      1  lig       0.105374
     57 H_1k         27.0984    4.9535   -3.9243 hB      1  lig       0.105374
     58 C_1l         26.9750    6.4703    0.0558 cD      1  lig      -0.085836
     59 H_1m         26.9391    5.4507    0.4455 hC      1  lig       0.065229
     60 H_1n         27.9268    6.9491    0.3081 hD      1  lig       0.065229
     61 H_1o         26.1295    7.0580    0.4191 hE      1  lig       0.065229
@<TRIPOS>BOND
     1     1     2    1
     2     1     6    2
     3     1     7    1
     4     2     3    2
     5     3     4    1
     6     3    44    1
     7     4     5    1
     8     4    27    1
     9     5     6    1
    10     5     8    2
    11     6     9    1
    12     7    10    1
    13     7    28    1
    14     9    19    1
    15     9    22    2
    16    10    11    1
    17    10    14    1
    18    10    29    1
    19    11    12    1
    20    11    15    1
    21    11    30    1
    22    12    13    1
    23    12    16    1
    24    12    31    1
    25    13    14    1
    26    13    17    1
    27    13    32    1
    28    14    33    1
    29    14    34    1
    30    15    35    1
    31    16    36    1
    32    17    18    1
    33    17    37    1
    34    17    38    1
    35    18    39    1
    36    19    20    1
    37    20    21    2
    38    20    23    1
    39    21    22    1
    40    21    26    1
    41    23    24    2
    42    23    40    1
    43    24    25    1
    44    24    41    1
    45    25    26    2
    46    25    42    1
    47    26    43    1
    48    44    45    1
    49    44    49    1
    50    45    46    1
    51    45    50    1
    52    45    51    1
    53    46    47    1
    54    46    52    1
    55    46    53    1
    56    47    48    1
    57    47    58    1
    58    48    49    1
    59    48    54    1
    60    48    55    1
    61    49    56    1
    62    49    57    1
    63    58    59    1
    64    58    60    1
    65    58    61    1
