@<TRIPOS>MOLECULE
lig
  62   66 0 0 0
SMALL
NO_CHARGES


@<TRIPOS>ATOM
      1 C_00         29.4571    8.7056   -6.8619 c4      1  lig      -0.032363
      2 N_01         28.7407    8.3611   -5.7437 n0      1  lig       0.040522
      3 C_02         28.7337    7.1523   -5.3141 c5      1  lig       0.150729
      4 N_03         29.4016    6.1864   -6.0186 ng      1  lig      -0.262980
      5 C_04         30.1186    6.3785   -7.1563 c6      1  lig       0.399495
      6 C_05         30.1789    7.7855   -7.5948 c7      1  lig       0.025961
      7 N_06         29.4293   10.0600   -7.1394 nr      1  lig      -0.126435
      8 N_07         28.0392    6.8512   -4.1137 nw      1  lig      -0.274973
      9 O_08         30.6222    5.4054   -7.7088 o0      1  lig      -0.484791
     10 C_09         31.0382    8.1626   -8.7615 c8      1  lig       0.004282
     11 C_0a         28.9256   11.1732   -6.3380 c9      1  lig      -0.004049
     12 C_0b         29.8374   11.5371   -5.1605 cb      1  lig       0.194256
     13 C_0c         29.3667   12.9504   -4.7665 ci      1  lig       0.230302
     14 C_0d         29.0113   13.6306   -6.1146 cj      1  lig      -0.031156
     15 C_0e         28.8745   12.4793   -7.1433 ck      1  lig      -0.222565
     16 O_0f         29.8087   10.5879   -4.1140 o1      1  lig      -0.643972
     17 O_0g         28.2564   12.9415   -3.8813 o2      1  lig      -0.681213
     18 C_0h         30.0392   14.7118   -6.5198 cm      1  lig       0.030340
     19 O_0i         29.7276   15.2869   -7.7721 o3      1  lig      -0.642592
     20 S_0j         32.3853    7.1819   -9.3591 s0      1  lig      -0.016015
     21 C_0k         32.8630    8.5158  -10.3947 cn      1  lig       0.078562
     22 C_0l         31.9328    9.5657  -10.2410 co      1  lig       0.066237
     23 N_0m         30.9258    9.3164   -9.3705 nA      1  lig      -0.141880
     24 C_0n         33.9624    8.6519  -11.2481 cq      1  lig      -0.200385
     25 C_0o         34.1278    9.8600  -11.9235 cr      1  lig      -0.187095
     26 C_0p         33.2225   10.9031  -11.7660 cs      1  lig      -0.107931
     27 C_0q         32.1098   10.7680  -10.9388 ct      1  lig      -0.187527
     28 H_0r         29.3697    5.2384   -5.6788 h0      1  lig       0.311952
     29 H_0s         30.0840   10.3708   -7.8442 h6      1  lig       0.069256
     30 H_0t         28.0575    5.9040   -3.7642 h7      1  lig       0.338651
     31 H_0u         27.9302   10.9504   -5.9479 h8      1  lig       0.096443
     32 H_0v         30.8632   11.6091   -5.5306 h9      1  lig       0.048042
     33 H_0w         30.1739   13.4728   -4.2504 hb      1  lig       0.031415
     34 H_0x         28.0446   14.1298   -6.0173 hd      1  lig       0.098319
     35 H_0y         27.9593   12.5555   -7.7315 he      1  lig       0.129907
     36 H_0z         29.7061   12.5125   -7.8524 hf      1  lig       0.129907
     37 H_10         29.6657    9.7231   -4.5132 hg      1  lig       0.303538
     38 H_11         28.5058   12.4569   -3.0862 hh      1  lig       0.421766
     39 H_12         31.0395   14.2837   -6.5787 hi      1  lig       0.091955
     40 H_13         30.0706   15.5071   -5.7746 hj      1  lig       0.091955
     41 H_14         28.9283   15.8146   -7.6747 hk      1  lig       0.419698
     42 H_15         34.6740    7.8498  -11.3709 hl      1  lig       0.201201
     43 H_16         34.9744    9.9974  -12.5784 hm      1  lig       0.159234
     44 H_17         33.3931   11.8332  -12.2856 hq      1  lig       0.147582
     45 H_18         31.4194   11.5899  -10.8164 hr      1  lig       0.146069
     46 N_19         26.3563    9.8339   -1.5731 nB      1  lig      -0.100038
     47 C_1a         26.4283   10.0509   -2.9590 cw      1  lig       0.032436
     48 C_1b         26.9826    9.0685   -3.7958 cA      1  lig       0.048876
     49 C_1c         27.4649    7.8691   -3.2467 cB      1  lig       0.090913
     50 C_1d         27.3929    7.6520   -1.8609 cC      1  lig      -0.219654
     51 C_1e         26.8386    8.6345   -1.0241 cD      1  lig       0.135654
     52 H_1f         27.0392    9.2390   -4.8845 ht      1  lig       0.042525
     53 H_1g         27.7718    6.7097   -1.4297 hu      1  lig       0.179359
     54 C_1h         25.9056   11.3508   -3.5538 cE      1  lig      -0.161929
     55 H_1i         26.0491   11.3374   -4.6634 hv      1  lig       0.097865
     56 H_1j         24.8166   11.4566   -3.3198 hy      1  lig       0.097865
     57 H_1k         26.4669   12.2138   -3.1155 hz      1  lig       0.097865
     58 C_1l         26.7605    8.3993    0.4776 cF      1  lig      -0.199907
     59 H_1m         27.1909    7.3955    0.7208 hA      1  lig       0.111129
     60 H_1n         27.3418    9.1933    1.0102 hB      1  lig       0.111129
     61 H_1o         25.6915    8.4362    0.8058 hC      1  lig       0.111129
     62 H_1p         25.9577   10.5404   -0.9714 hD      1  lig       0.315129
@<TRIPOS>BOND
     1     1     2    1
     2     1     6    2
     3     1     7    1
     4     2     3    2
     5     3     4    1
     6     3     8    1
     7     4     5    1
     8     4    28    1
     9     5     6    1
    10     5     9    2
    11     6    10    1
    12     7    11    1
    13     7    29    1
    14     8    30    1
    15     8    49    1
    16    10    20    1
    17    10    23    2
    18    11    12    1
    19    11    15    1
    20    11    31    1
    21    12    13    1
    22    12    16    1
    23    12    32    1
    24    13    14    1
    25    13    17    1
    26    13    33    1
    27    14    15    1
    28    14    18    1
    29    14    34    1
    30    15    35    1
    31    15    36    1
    32    16    37    1
    33    17    38    1
    34    18    19    1
    35    18    39    1
    36    18    40    1
    37    19    41    1
    38    20    21    1
    39    21    22    2
    40    21    24    1
    41    22    23    1
    42    22    27    1
    43    24    25    2
    44    24    42    1
    45    25    26    1
    46    25    43    1
    47    26    27    2
    48    26    44    1
    49    27    45    1
    50    46    47    2
    51    46    51    1
    52    46    62    1
    53    47    48    1
    54    47    54    1
    55    48    49    2
    56    48    52    1
    57    49    50    1
    58    50    51    2
    59    50    53    1
    60    51    58    1
    61    54    55    1
    62    54    56    1
    63    54    57    1
    64    58    59    1
    65    58    60    1
    66    58    61    1
