@<TRIPOS>MOLECULE
lig
  47   50 0 0 0
SMALL
NO_CHARGES


@<TRIPOS>ATOM
      1 C_00         29.4571    8.7056   -6.8619 c4      1  lig       0.282779
      2 N_01         28.7407    8.3611   -5.7437 n0      1  lig      -0.499745
      3 C_02         28.7337    7.1523   -5.3141 c5      1  lig       0.579132
      4 N_03         29.4016    6.1864   -6.0186 ng      1  lig      -0.381459
      5 C_04         30.1186    6.3785   -7.1563 c6      1  lig       0.480858
      6 C_05         30.1789    7.7855   -7.5948 c7      1  lig      -0.121976
      7 N_06         29.4293   10.0600   -7.1394 nr      1  lig      -0.404759
      8 O_07         30.6222    5.4054   -7.7088 o0      1  lig      -0.558781
      9 C_08         31.0382    8.1626   -8.7615 c8      1  lig       0.309312
     10 C_09         28.9256   11.1732   -6.3380 c9      1  lig       0.052032
     11 C_0a         29.8374   11.5371   -5.1605 cb      1  lig       0.211024
     12 C_0b         29.3667   12.9504   -4.7665 ci      1  lig       0.274584
     13 C_0c         29.0113   13.6306   -6.1146 cj      1  lig      -0.064295
     14 C_0d         28.8745   12.4793   -7.1433 ck      1  lig      -0.112098
     15 O_0e         29.8087   10.5879   -4.1140 o1      1  lig      -0.677468
     16 O_0f         28.2564   12.9415   -3.8813 o2      1  lig      -0.739076
     17 C_0g         30.0392   14.7118   -6.5198 cm      1  lig       0.035876
     18 O_0h         29.7276   15.2869   -7.7721 o3      1  lig      -0.652479
     19 S_0i         32.7604    8.5536   -8.6395 s0      1  lig      -0.124699
     20 C_0j         32.7259    9.1077  -10.3044 cn      1  lig       0.049918
     21 C_0k         31.4315    8.8987  -10.8258 co      1  lig       0.459776
     22 N_0l         30.5494    8.3403   -9.9633 nw      1  lig      -0.586816
     23 C_0m         33.7262    9.6961  -11.0846 cq      1  lig      -0.248838
     24 C_0n         33.4039   10.0922  -12.3816 cr      1  lig      -0.195805
     25 C_0o         32.1269    9.9015  -12.8967 cs      1  lig      -0.130028
     26 C_0p         31.1309    9.2923  -12.1367 ct      1  lig      -0.281002
     27 H_0q         29.3697    5.2384   -5.6788 h0      1  lig       0.304655
     28 H_0r         30.0840   10.3708   -7.8442 h6      1  lig       0.222597
     29 H_0s         27.9302   10.9504   -5.9479 h7      1  lig       0.096613
     30 H_0t         30.8632   11.6091   -5.5306 h8      1  lig       0.009296
     31 H_0u         30.1739   13.4728   -4.2504 h9      1  lig       0.006540
     32 H_0v         28.0446   14.1298   -6.0173 hb      1  lig       0.113391
     33 H_0w         27.9593   12.5555   -7.7315 hd      1  lig       0.079874
     34 H_0x         29.7061   12.5125   -7.8524 he      1  lig       0.079874
     35 H_0y         29.6657    9.7231   -4.5132 hf      1  lig       0.403972
     36 H_0z         28.5058   12.4569   -3.0862 hg      1  lig       0.464542
     37 H_10         31.0395   14.2837   -6.5787 hh      1  lig       0.083146
     38 H_11         30.0706   15.5071   -5.7746 hi      1  lig       0.083146
     39 H_12         28.9283   15.8146   -7.6747 hj      1  lig       0.417442
     40 H_13         34.7184    9.8543  -10.6903 hk      1  lig       0.211471
     41 H_14         34.1527   10.5607  -13.0015 hl      1  lig       0.159891
     42 H_15         31.9048   10.2410  -13.8964 hm      1  lig       0.151723
     43 H_16         30.1394    9.1596  -12.5447 hq      1  lig       0.175288
     44 C_17         27.9883    6.8039   -4.0337 cw      1  lig      -0.511074
     45 H_18         28.0973    5.7102   -3.8245 hr      1  lig       0.163882
     46 H_19         28.4151    7.3910   -3.1822 ht      1  lig       0.163882
     47 H_1a         26.9044    7.0546   -4.1533 hu      1  lig       0.163882
@<TRIPOS>BOND
     1     1     2    1
     2     1     6    2
     3     1     7    1
     4     2     3    2
     5     3     4    1
     6     3    44    1
     7     4     5    1
     8     4    27    1
     9     5     6    1
    10     5     8    2
    11     6     9    1
    12     7    10    1
    13     7    28    1
    14     9    19    1
    15     9    22    2
    16    10    11    1
    17    10    14    1
    18    10    29    1
    19    11    12    1
    20    11    15    1
    21    11    30    1
    22    12    13    1
    23    12    16    1
    24    12    31    1
    25    13    14    1
    26    13    17    1
    27    13    32    1
    28    14    33    1
    29    14    34    1
    30    15    35    1
    31    16    36    1
    32    17    18    1
    33    17    37    1
    34    17    38    1
    35    18    39    1
    36    19    20    1
    37    20    21    2
    38    20    23    1
    39    21    22    1
    40    21    26    1
    41    23    24    2
    42    23    40    1
    43    24    25    1
    44    24    41    1
    45    25    26    2
    46    25    42    1
    47    26    43    1
    48    44    45    1
    49    44    46    1
    50    44    47    1
