@<TRIPOS>MOLECULE
lig
  67   71 0 0 0
SMALL
NO_CHARGES


@<TRIPOS>ATOM
      1 C_00          6.2843    8.8158   24.5413 c4      1  lig       0.625396
      2 N_01          5.9555    8.4859   23.2992 n0      1  lig      -0.414474
      3 C_02          4.5919    8.5353   22.7929 c5      1  lig       0.014554
      4 O_03          5.4502    9.1670   25.3675 o0      1  lig      -0.575586
      5 C_04          4.0043    7.1129   22.7896 c6      1  lig       0.013672
      6 C_05          2.5672    7.1146   22.2143 c7      1  lig      -0.123697
      7 C_06          2.5176    7.7475   20.7918 c8      1  lig       0.046666
      8 C_07          3.0864    9.1992   20.8182 c9      1  lig      -0.056215
      9 C_08          4.5137    9.2180   21.4048 cb      1  lig      -0.002797
     10 N_09          4.9086    6.2193   22.0719 ng      1  lig      -0.068755
     11 C_0a          4.9258    4.8937   22.1856 ci      1  lig       0.487505
     12 C_0b          5.6646    4.2415   21.1209 cj      1  lig       0.093166
     13 O_0c          4.2645    4.2831   23.0259 o1      1  lig      -0.523525
     14 N_0d          6.1759    4.7911   20.0362 nr      1  lig      -0.415596
     15 S_0e          6.0592    2.5553   21.3175 s0      1  lig      -0.013839
     16 H_0f          6.7022    8.2545   22.6620 h0      1  lig       0.179075
     17 H_0g          3.9673    9.1381   23.4619 h6      1  lig       0.125875
     18 H_0h          5.4907    6.6206   21.3528 h7      1  lig       0.122855
     19 C_0i          6.9158    3.9548   19.3541 ck      1  lig       0.235436
     20 C_0j          7.0250    2.6811   19.8872 cm      1  lig      -0.057400
     21 C_0k          7.9001    1.6220   19.2816 cn      1  lig       0.024458
     22 N_0l          7.9386    1.8694   17.8345 nw      1  lig      -0.392629
     23 C_0m          8.5061    3.1995   17.5565 co      1  lig       0.043735
     24 C_0n          7.5778    4.3412   18.0470 cq      1  lig      -0.214478
     25 C_0o          8.7498    0.8506   17.1984 cr      1  lig       0.000826
     26 H_0p          7.4924    0.6421   19.5037 h8      1  lig       0.093311
     27 H_0q          8.8987    1.6411   19.7244 h9      1  lig       0.093311
     28 H_0r          8.6778    3.3302   16.4860 hb      1  lig       0.055075
     29 H_0s          9.4902    3.2989   18.0226 hd      1  lig       0.055075
     30 H_0t          8.1484    5.2601   18.1569 he      1  lig       0.104904
     31 H_0u          6.8161    4.5354   17.2926 hf      1  lig       0.104904
     32 H_0v          8.8052    1.0695   16.1341 hg      1  lig       0.047738
     33 H_0w          9.7610    0.8192   17.6086 hh      1  lig       0.047738
     34 H_0x          8.3099   -0.1391   17.3015 hi      1  lig       0.047738
     35 C_0y          1.0676    7.6910   20.2329 cs      1  lig       0.370853
     36 O_0z          0.3104    8.6412   20.4535 o2      1  lig      -0.538856
     37 N_10          0.6523    6.6056   19.5256 nA      1  lig      -0.096956
     38 C_11         -0.6704    6.5489   18.8879 ct      1  lig      -0.041032
     39 C_12          1.4912    5.4400   19.2160 cw      1  lig      -0.236582
     40 H_13          1.9148    7.6716   22.8889 hj      1  lig       0.067177
     41 H_14          2.1778    6.0972   22.2014 hk      1  lig       0.067177
     42 H_15          3.1372    7.1752   20.1018 hl      1  lig       0.025362
     43 H_16          2.4464    9.8436   21.4236 hm      1  lig       0.048371
     44 H_17          3.0887    9.6253   19.8165 hq      1  lig       0.048371
     45 H_18          5.1953    8.7263   20.7088 hr      1  lig       0.018509
     46 H_19          4.8606   10.2500   21.4809 ht      1  lig       0.018509
     47 H_1a         -1.1846    5.6238   19.1522 hu      1  lig       0.057318
     48 H_1b         -1.3260    7.3725   19.1766 hv      1  lig       0.057318
     49 H_1c         -0.5707    6.5750   17.8018 hy      1  lig       0.057318
     50 H_1d          2.0145    5.5847   18.2697 hz      1  lig       0.090959
     51 H_1e          2.2331    5.2304   19.9873 hA      1  lig       0.090959
     52 H_1f          0.8860    4.5368   19.1237 hB      1  lig       0.090959
     53 H_1g          3.9554    6.7753   23.8306 hC      1  lig       0.058464
     54 C_1h          7.6897    8.6778   24.8148 cA      1  lig       0.033563
     55 C_1i          8.7668    9.0728   24.0280 cB      1  lig      -0.403193
     56 N_1j          8.1928    8.2277   26.0165 nB      1  lig      -0.354248
     57 H_1k          8.6912    9.5314   23.0546 hD      1  lig       0.234905
     58 H_1l          7.5731    7.9394   26.7621 hE      1  lig       0.351096
     59 C_1m          9.9692    8.7575   24.7310 cC      1  lig       0.218255
     60 C_1n          9.5750    8.1976   25.9786 cD      1  lig       0.031366
     61 C_1o         10.5460    7.7560   26.8829 cE      1  lig       0.160752
     62 N_1p         11.8657    7.8730   26.5837 nC      1  lig      -0.485800
     63 C_1q         12.2435    8.4301   25.4064 cF      1  lig       0.316461
     64 C_1r         11.3369    8.8858   24.4529 cG      1  lig      -0.271254
     65 H_1s         10.2928    7.3071   27.8329 hF      1  lig       0.114131
     66 Cl1t         13.9266    8.5811   25.0717 a0      1  lig      -0.158632
     67 H_1u         11.6806    9.3200   23.5288 hG      1  lig       0.154378
@<TRIPOS>BOND
     1     1     2    1
     2     1     4    2
     3     1    54    1
     4     2     3    1
     5     2    16    1
     6     3     5    1
     7     3     9    1
     8     3    17    1
     9     5     6    1
    10     5    10    1
    11     5    53    1
    12     6     7    1
    13     6    40    1
    14     6    41    1
    15     7     8    1
    16     7    35    1
    17     7    42    1
    18     8     9    1
    19     8    43    1
    20     8    44    1
    21     9    45    1
    22     9    46    1
    23    10    11    1
    24    10    18    1
    25    11    12    1
    26    11    13    2
    27    12    14    2
    28    12    15    1
    29    14    19    1
    30    15    20    1
    31    19    20    2
    32    19    24    1
    33    20    21    1
    34    21    22    1
    35    21    26    1
    36    21    27    1
    37    22    23    1
    38    22    25    1
    39    23    24    1
    40    23    28    1
    41    23    29    1
    42    24    30    1
    43    24    31    1
    44    25    32    1
    45    25    33    1
    46    25    34    1
    47    35    36    2
    48    35    37    1
    49    37    38    1
    50    37    39    1
    51    38    47    1
    52    38    48    1
    53    38    49    1
    54    39    50    1
    55    39    51    1
    56    39    52    1
    57    54    55    2
    58    54    56    1
    59    55    57    1
    60    55    59    1
    61    56    58    1
    62    56    60    1
    63    59    60    2
    64    59    64    1
    65    60    61    1
    66    61    62    2
    67    61    65    1
    68    62    63    1
    69    63    64    2
    70    63    66    1
    71    64    67    1
