@<TRIPOS>MOLECULE
lig
  68   72 0 0 0
SMALL
NO_CHARGES


@<TRIPOS>ATOM
      1 C_00          6.2855    8.8158   24.5425 c4      1  lig       0.579148
      2 N_01          5.9555    8.4860   23.2992 n0      1  lig      -0.380009
      3 C_02          4.5919    8.5353   22.7929 c5      1  lig       0.011139
      4 O_03          5.4502    9.1670   25.3675 o0      1  lig      -0.574910
      5 C_04          4.0044    7.1129   22.7896 c6      1  lig       0.009331
      6 C_05          2.5673    7.1147   22.2141 c7      1  lig      -0.122135
      7 C_06          2.5176    7.7475   20.7918 c8      1  lig       0.055727
      8 C_07          3.0864    9.1992   20.8182 c9      1  lig      -0.060854
      9 C_08          4.5137    9.2180   21.4048 cb      1  lig      -0.007692
     10 N_09          4.9086    6.2192   22.0720 ng      1  lig      -0.075351
     11 C_0a          4.9259    4.8938   22.1857 ci      1  lig       0.485056
     12 C_0b          5.6646    4.2415   21.1209 cj      1  lig       0.097791
     13 O_0c          4.2645    4.2831   23.0259 o1      1  lig      -0.522375
     14 N_0d          6.1759    4.7911   20.0362 nr      1  lig      -0.410778
     15 S_0e          6.0592    2.5553   21.3175 s0      1  lig      -0.017254
     16 H_0f          6.7022    8.2544   22.6620 h0      1  lig       0.179481
     17 H_0g          3.9673    9.1381   23.4619 h6      1  lig       0.128402
     18 H_0h          5.4908    6.6206   21.3528 h7      1  lig       0.122321
     19 C_0i          6.9158    3.9548   19.3541 ck      1  lig       0.228238
     20 C_0j          7.0250    2.6811   19.8872 cm      1  lig      -0.057274
     21 C_0k          7.9001    1.6220   19.2816 cn      1  lig       0.031384
     22 N_0l          7.9386    1.8694   17.8345 nw      1  lig      -0.393766
     23 C_0m          8.5061    3.1995   17.5565 co      1  lig       0.045591
     24 C_0n          7.5778    4.3412   18.0470 cq      1  lig      -0.214562
     25 C_0o          8.7498    0.8506   17.1984 cr      1  lig       0.001424
     26 H_0p          7.4924    0.6421   19.5037 h8      1  lig       0.091345
     27 H_0q          8.8987    1.6411   19.7244 h9      1  lig       0.091345
     28 H_0r          8.6778    3.3302   16.4860 hb      1  lig       0.054510
     29 H_0s          9.4902    3.2989   18.0226 hd      1  lig       0.054510
     30 H_0t          8.1484    5.2601   18.1569 he      1  lig       0.105046
     31 H_0u          6.8161    4.5354   17.2926 hf      1  lig       0.105046
     32 H_0v          8.8052    1.0695   16.1341 hg      1  lig       0.047073
     33 H_0w          9.7610    0.8192   17.6086 hh      1  lig       0.047073
     34 H_0x          8.3099   -0.1391   17.3015 hi      1  lig       0.047073
     35 C_0y          1.0676    7.6910   20.2329 cs      1  lig       0.360077
     36 O_0z          0.3104    8.6412   20.4535 o2      1  lig      -0.537051
     37 N_10          0.6523    6.6056   19.5256 nA      1  lig      -0.091270
     38 C_11         -0.6704    6.5489   18.8879 ct      1  lig      -0.043656
     39 C_12          1.4912    5.4400   19.2160 cw      1  lig      -0.239206
     40 H_13          1.9148    7.6716   22.8889 hj      1  lig       0.067071
     41 H_14          2.1778    6.0972   22.2014 hk      1  lig       0.067071
     42 H_15          3.1372    7.1752   20.1018 hl      1  lig       0.024126
     43 H_16          2.4464    9.8436   21.4236 hm      1  lig       0.048864
     44 H_17          3.0887    9.6253   19.8165 hq      1  lig       0.048864
     45 H_18          5.1953    8.7263   20.7088 hr      1  lig       0.020189
     46 H_19          4.8606   10.2500   21.4809 ht      1  lig       0.020189
     47 H_1a         -1.1846    5.6238   19.1522 hu      1  lig       0.057404
     48 H_1b         -1.3260    7.3725   19.1766 hv      1  lig       0.057404
     49 H_1c         -0.5707    6.5750   17.8018 hy      1  lig       0.057404
     50 H_1d          2.0145    5.5847   18.2697 hz      1  lig       0.091224
     51 H_1e          2.2331    5.2304   19.9873 hA      1  lig       0.091224
     52 H_1f          0.8860    4.5368   19.1237 hB      1  lig       0.091224
     53 H_1g          3.9554    6.7753   23.8306 hC      1  lig       0.056924
     54 C_1h          7.6932    8.6792   24.8180 cA      1  lig      -0.018628
     55 C_1i          8.7708    9.0755   24.0342 cB      1  lig      -0.356501
     56 N_1j          8.2023    8.2251   26.0154 nB      1  lig      -0.271517
     57 H_1k          8.6929    9.5350   23.0596 hD      1  lig       0.220083
     58 H_1l          7.5895    7.9273   26.7604 hE      1  lig       0.329333
     59 C_1m          9.9753    8.7575   24.7358 cC      1  lig       0.085297
     60 C_1n          9.5831    8.1905   25.9850 cD      1  lig       0.132413
     61 C_1o         10.5198    7.7294   26.9175 cE      1  lig      -0.281770
     62 C_1p         11.8695    7.8672   26.5785 cF      1  lig      -0.051967
     63 C_1q         12.2739    8.4432   25.3759 cG      1  lig      -0.049035
     64 C_1r         11.3403    8.8915   24.4455 cH      1  lig      -0.105452
     65 H_1s         10.2249    7.2834   27.8554 hF      1  lig       0.182563
     66 H_1t         12.6294    7.5241   27.2663 hG      1  lig       0.140908
     67 Cl1u         13.9561    8.6042   25.0293 a0      1  lig      -0.133537
     68 H_1v         11.6674    9.3311   23.5161 hH      1  lig       0.148640
@<TRIPOS>BOND
     1     1     2    1
     2     1     4    2
     3     1    54    1
     4     2     3    1
     5     2    16    1
     6     3     5    1
     7     3     9    1
     8     3    17    1
     9     5     6    1
    10     5    10    1
    11     5    53    1
    12     6     7    1
    13     6    40    1
    14     6    41    1
    15     7     8    1
    16     7    35    1
    17     7    42    1
    18     8     9    1
    19     8    43    1
    20     8    44    1
    21     9    45    1
    22     9    46    1
    23    10    11    1
    24    10    18    1
    25    11    12    1
    26    11    13    2
    27    12    14    2
    28    12    15    1
    29    14    19    1
    30    15    20    1
    31    19    20    2
    32    19    24    1
    33    20    21    1
    34    21    22    1
    35    21    26    1
    36    21    27    1
    37    22    23    1
    38    22    25    1
    39    23    24    1
    40    23    28    1
    41    23    29    1
    42    24    30    1
    43    24    31    1
    44    25    32    1
    45    25    33    1
    46    25    34    1
    47    35    36    2
    48    35    37    1
    49    37    38    1
    50    37    39    1
    51    38    47    1
    52    38    48    1
    53    38    49    1
    54    39    50    1
    55    39    51    1
    56    39    52    1
    57    54    55    2
    58    54    56    1
    59    55    57    1
    60    55    59    1
    61    56    58    1
    62    56    60    1
    63    59    60    2
    64    59    64    1
    65    60    61    1
    66    61    62    2
    67    61    65    1
    68    62    63    1
    69    62    66    1
    70    63    64    2
    71    63    67    1
    72    64    68    1
