@<TRIPOS>MOLECULE
lig
  58   63 0 0 0
SMALL
NO_CHARGES


@<TRIPOS>ATOM
      1 C_00          8.0859    5.1256   15.3633 c4      1  lig       0.098479
      2 C_01          8.5070    6.3726   15.9092 c5      1  lig      -0.027812
      3 C_02          9.7824    6.5503   15.4567 c6      1  lig      -0.168784
      4 N_03         10.0568    5.4464   14.6824 n0      1  lig      -0.047160
      5 N_04          9.0373    4.5619   14.6341 ng      1  lig      -0.443023
      6 C_05          2.1861    8.1357   19.3625 c7      1  lig       0.001158
      7 C_06          1.4098    7.0994   18.9116 c8      1  lig      -0.382674
      8 N_07          1.3687    8.9475   20.1287 nr      1  lig      -0.200400
      9 C_08          0.1096    7.2618   19.4657 c9      1  lig       0.113055
     10 C_09          0.0874    8.4605   20.2368 cb      1  lig       0.100722
     11 C_0a         -1.0615    8.9082   20.9105 ci      1  lig      -0.241173
     12 C_0b         -2.2323    8.1311   20.8523 cj      1  lig      -0.213647
     13 C_0c         -2.2366    6.9226   20.1234 ck      1  lig      -0.005277
     14 C_0d         -1.0823    6.5072   19.4258 cm      1  lig      -0.151231
     15 C_0e         -3.4456    6.0074   20.1629 cn      1  lig      -0.201645
     16 C_0f          7.7340    7.2661   16.7896 co      1  lig      -0.031667
     17 C_0g          8.3392    8.4048   17.3639 cq      1  lig      -0.053452
     18 C_0h          7.6184    9.2323   18.2421 cr      1  lig      -0.259681
     19 C_0i          6.3813    6.9889   17.0832 cs      1  lig      -0.157013
     20 C_0j          5.6412    7.8125   17.9573 ct      1  lig       0.049919
     21 C_0k          6.2788    8.9294   18.5390 cw      1  lig       0.117189
     22 N_0l          5.5613    9.7356   19.4080 nw      1  lig      -0.328773
     23 C_0m          4.2814    9.5137   19.7559 cA      1  lig       0.494109
     24 C_0n          3.5977    8.3791   19.1037 cB      1  lig       0.034600
     25 C_0o          4.2537    7.5495   18.2508 cC      1  lig      -0.159216
     26 O_0p          3.7616   10.2599   20.5773 o0      1  lig      -0.597213
     27 N_0q         -3.6149    5.3649   21.4916 nA      1  lig      -0.022229
     28 C_0r         -4.8320    4.5136   21.5339 cD      1  lig      -0.051620
     29 C_0s         -5.0950    3.9852   22.9556 cE      1  lig      -0.028638
     30 C_0t         -3.8760    3.2296   23.5028 cF      1  lig      -0.016377
     31 C_0u         -2.6272    4.1135   23.4043 cG      1  lig      -0.030173
     32 C_0v         -2.4215    4.6088   21.9656 cH      1  lig      -0.037903
     33 H_0w          7.1399    4.6152   15.4693 h0      1  lig       0.133454
     34 H_0x         10.4981    7.3445   15.6102 h6      1  lig       0.189556
     35 H_0y         10.9223    5.2805   14.1843 h7      1  lig       0.323890
     36 H_0z          1.6958    6.2873   18.2601 h8      1  lig       0.194082
     37 H_10          1.7335    9.7883   20.5655 h9      1  lig       0.334572
     38 H_11         -1.0346    9.8452   21.4492 hb      1  lig       0.194196
     39 H_12         -3.1155    8.4805   21.3695 hd      1  lig       0.152950
     40 H_13         -1.0819    5.6051   18.8316 he      1  lig       0.138859
     41 H_14         -3.3450    5.2483   19.3844 hf      1  lig       0.147553
     42 H_15         -4.3339    6.5915   19.9117 hg      1  lig       0.147553
     43 H_16          9.3650    8.6510   17.1361 hh      1  lig       0.145419
     44 H_17          8.0988   10.0951   18.6801 hi      1  lig       0.177298
     45 H_18          5.8904    6.1402   16.6317 hj      1  lig       0.141974
     46 H_19          6.0215   10.5441   19.7943 hk      1  lig       0.328271
     47 H_1a          3.8251    6.6968   17.7512 hl      1  lig       0.184836
     48 H_1b         -5.6971    5.0839   21.1923 hm      1  lig       0.094770
     49 H_1c         -4.7184    3.6756   20.8427 hq      1  lig       0.094770
     50 H_1d         -5.3482    4.8098   23.6236 hr      1  lig       0.046004
     51 H_1e         -5.9635    3.3243   22.9509 ht      1  lig       0.046004
     52 H_1f         -4.0485    2.9318   24.5388 hu      1  lig       0.045212
     53 H_1g         -3.7252    2.3052   22.9422 hv      1  lig       0.045212
     54 H_1h         -2.7200    4.9590   24.0880 hy      1  lig       0.045302
     55 H_1i         -1.7509    3.5547   23.7384 hz      1  lig       0.045302
     56 H_1j         -2.2280    3.7693   21.2944 hA      1  lig       0.089581
     57 H_1k         -1.5273    5.2339   21.9456 hB      1  lig       0.089581
     58 H_1l         -3.7752    6.1201   22.1462 hC      1  lig       0.271349
@<TRIPOS>BOND
     1     1     2    1
     2     1     5    2
     3     1    33    1
     4     2     3    2
     5     2    16    1
     6     3     4    1
     7     3    34    1
     8     4     5    1
     9     4    35    1
    10     6     7    2
    11     6     8    1
    12     6    24    1
    13     7     9    1
    14     7    36    1
    15     8    10    1
    16     8    37    1
    17     9    10    1
    18     9    14    2
    19    10    11    2
    20    11    12    1
    21    11    38    1
    22    12    13    2
    23    12    39    1
    24    13    14    1
    25    13    15    1
    26    14    40    1
    27    15    27    1
    28    15    41    1
    29    15    42    1
    30    16    17    2
    31    16    19    1
    32    17    18    1
    33    17    43    1
    34    18    21    2
    35    18    44    1
    36    19    20    2
    37    19    45    1
    38    20    21    1
    39    20    25    1
    40    21    22    1
    41    22    23    1
    42    22    46    1
    43    23    24    1
    44    23    26    2
    45    24    25    2
    46    25    47    1
    47    27    28    1
    48    27    32    1
    49    27    58    1
    50    28    29    1
    51    28    48    1
    52    28    49    1
    53    29    30    1
    54    29    50    1
    55    29    51    1
    56    30    31    1
    57    30    52    1
    58    30    53    1
    59    31    32    1
    60    31    54    1
    61    31    55    1
    62    32    56    1
    63    32    57    1
