@<TRIPOS>MOLECULE
lig
  58   63 0 0 0
SMALL
NO_CHARGES


@<TRIPOS>ATOM
      1 O_00          3.7616   10.2599   20.5773 o0      1  lig      -0.594151
      2 C_01          4.2814    9.5137   19.7559 c4      1  lig       0.508895
      3 N_02          5.5613    9.7356   19.4080 n0      1  lig      -0.330724
      4 C_03          6.2788    8.9294   18.5390 c5      1  lig       0.101104
      5 C_04          7.6184    9.2323   18.2421 c6      1  lig      -0.223185
      6 C_05          8.3392    8.4048   17.3639 c7      1  lig      -0.082155
      7 C_06          7.7340    7.2661   16.7896 c8      1  lig      -0.018692
      8 N_07          8.5070    6.3726   15.9092 ng      1  lig       0.153944
      9 C_08          9.7824    6.5503   15.4567 c9      1  lig      -0.377140
     10 C_09         10.0568    5.4464   14.6824 cb      1  lig       0.093282
     11 N_0a          9.0373    4.5619   14.6341 nr      1  lig      -0.500651
     12 C_0b          8.0859    5.1256   15.3633 ci      1  lig       0.133193
     13 C_0c          6.3813    6.9889   17.0832 cj      1  lig      -0.163307
     14 C_0d          5.6412    7.8125   17.9573 ck      1  lig       0.042238
     15 C_0e          4.2537    7.5495   18.2508 cm      1  lig      -0.148943
     16 C_0f          3.5977    8.3791   19.1037 cn      1  lig       0.024883
     17 C_0g          2.1861    8.1357   19.3625 co      1  lig       0.009944
     18 C_0h          1.4098    7.0994   18.9116 cq      1  lig      -0.381705
     19 C_0i          0.1096    7.2618   19.4657 cr      1  lig       0.100609
     20 C_0j         -1.0823    6.5072   19.4258 cs      1  lig      -0.136802
     21 C_0k         -2.2366    6.9226   20.1234 ct      1  lig       0.003804
     22 C_0l         -3.4456    6.0074   20.1629 cw      1  lig      -0.241313
     23 N_0m         -3.6149    5.3649   21.4916 nw      1  lig      -0.027876
     24 C_0n         -4.8320    4.5136   21.5339 cA      1  lig      -0.052930
     25 C_0o         -5.0950    3.9852   22.9556 cB      1  lig      -0.033438
     26 C_0p         -3.8760    3.2296   23.5028 cC      1  lig      -0.015746
     27 C_0q         -2.6272    4.1135   23.4043 cD      1  lig      -0.032378
     28 C_0r         -2.4215    4.6088   21.9656 cE      1  lig      -0.048935
     29 C_0s         -2.2323    8.1311   20.8523 cF      1  lig      -0.212155
     30 C_0t         -1.0615    8.9082   20.9105 cG      1  lig      -0.237099
     31 C_0u          0.0874    8.4605   20.2368 cH      1  lig       0.097292
     32 N_0v          1.3687    8.9475   20.1287 nA      1  lig      -0.197051
     33 H_0w          6.0105   10.5551   19.7897 h0      1  lig       0.330148
     34 H_0x          8.0963   10.0953   18.6824 h6      1  lig       0.180094
     35 H_0y          9.3671    8.6434   17.1334 h7      1  lig       0.161415
     36 H_0z         10.3804    7.4157   15.7027 h8      1  lig       0.223287
     37 H_10         10.9547    5.2058   14.1325 h9      1  lig       0.144311
     38 H_11          7.1144    4.6826   15.5294 hb      1  lig       0.129972
     39 H_12          5.8845    6.1411   16.6350 hd      1  lig       0.153377
     40 H_13          3.8156    6.6837   17.7755 he      1  lig       0.184584
     41 H_14          1.7010    6.2902   18.2582 hf      1  lig       0.195546
     42 H_15         -1.1019    5.5961   18.8458 hg      1  lig       0.137379
     43 H_16         -3.3064    5.2436   19.3962 hh      1  lig       0.159141
     44 H_17         -4.3491    6.5560   19.8916 hi      1  lig       0.159141
     45 H_18         -5.6995    5.0889   21.2105 hj      1  lig       0.097700
     46 H_19         -4.7366    3.6735   20.8460 hk      1  lig       0.097700
     47 H_1a         -5.3435    4.8142   23.6182 hl      1  lig       0.047642
     48 H_1b         -5.9642    3.3275   22.9512 hm      1  lig       0.047642
     49 H_1c         -4.0487    2.9583   24.5443 hq      1  lig       0.046680
     50 H_1d         -3.7256    2.2987   22.9562 hr      1  lig       0.046680
     51 H_1e         -2.7191    4.9638   24.0801 ht      1  lig       0.046774
     52 H_1f         -1.7509    3.5555   23.7341 hu      1  lig       0.046774
     53 H_1g         -2.2187    3.7619   21.3101 hv      1  lig       0.094944
     54 H_1h         -1.5398    5.2489   21.9355 hy      1  lig       0.094944
     55 H_1i         -3.1237    8.4629   21.3648 hz      1  lig       0.154134
     56 H_1j         -1.0497    9.8339   21.4668 hA      1  lig       0.193351
     57 H_1k          1.6871    9.7988   20.5683 hB      1  lig       0.334850
     58 H_1l         -3.8050    6.0639   22.1955 hC      1  lig       0.278978
@<TRIPOS>BOND
     1     1     2    2
     2     2     3    1
     3     2    16    1
     4     3     4    1
     5     3    33    1
     6     4     5    1
     7     4    14    2
     8     5     6    2
     9     5    34    1
    10     6     7    1
    11     6    35    1
    12     7     8    1
    13     7    13    2
    14     8     9    1
    15     8    12    1
    16     9    10    2
    17     9    36    1
    18    10    11    1
    19    10    37    1
    20    11    12    2
    21    12    38    1
    22    13    14    1
    23    13    39    1
    24    14    15    1
    25    15    16    2
    26    15    40    1
    27    16    17    1
    28    17    18    2
    29    17    32    1
    30    18    19    1
    31    18    41    1
    32    19    20    1
    33    19    31    2
    34    20    21    2
    35    20    42    1
    36    21    22    1
    37    21    29    1
    38    22    23    1
    39    22    43    1
    40    22    44    1
    41    23    24    1
    42    23    28    1
    43    23    58    1
    44    24    25    1
    45    24    45    1
    46    24    46    1
    47    25    26    1
    48    25    47    1
    49    25    48    1
    50    26    27    1
    51    26    49    1
    52    26    50    1
    53    27    28    1
    54    27    51    1
    55    27    52    1
    56    28    53    1
    57    28    54    1
    58    29    30    2
    59    29    55    1
    60    30    31    1
    61    30    56    1
    62    31    32    1
    63    32    57    1
