@<TRIPOS>MOLECULE
lig
  72   78 0 0 0
SMALL
NO_CHARGES


@<TRIPOS>ATOM
      1 C_00         26.3250   -2.5289   53.9312 c4      1  lig      -0.270721
      2 C_01         25.1880   -1.7631   53.6847 c5      1  lig      -0.067179
      3 C_02         31.3565    0.9605   55.9703 c6      1  lig      -0.131991
      4 C_03         31.2675    2.2117   58.0273 c7      1  lig      -0.154222
      5 C_04         17.4136   -1.1719   52.3828 c8      1  lig      -0.154121
      6 C_05         27.3251   -2.0411   54.7687 c9      1  lig      -0.055128
      7 C_06         22.8368   -1.9839   55.9934 cb      1  lig      -0.299661
      8 C_07         22.2341   -3.0719   56.6245 ci      1  lig       0.300046
      9 C_08         30.8405    1.1222   57.2650 cj      1  lig       0.065008
     10 C_09         27.1824   -0.7831   55.3770 ck      1  lig       0.057483
     11 C_0a         22.0803   -1.3110   55.0248 cm      1  lig       0.147759
     12 C_0b         23.8462    0.2869   54.0200 cn      1  lig       0.157670
     13 C_0c         20.3324   -2.7881   55.3696 co      1  lig       0.654123
     14 C_0d         20.4155    1.1296   53.4655 cq      1  lig      -0.134460
     15 C_0e         29.1348   -0.7936   56.9377 cr      1  lig       0.622521
     16 C_0f         32.6424    2.9881   56.2032 cs      1  lig      -0.092709
     17 C_0g         32.2462    1.8921   55.4412 ct      1  lig      -0.168223
     18 C_0h         32.1649    3.1401   57.5018 cw      1  lig      -0.168303
     19 C_0i         15.7223   -2.1599   53.7722 cA      1  lig      -0.177674
     20 C_0j         18.3931   -1.8362   53.1098 cB      1  lig      -0.038670
     21 C_0k         16.7065   -2.8049   54.5081 cC      1  lig      -0.142156
     22 C_0l         26.0578   -0.0100   55.0848 cD      1  lig      -0.181775
     23 C_0m         25.0485   -0.4908   54.2510 cE      1  lig       0.048956
     24 C_0n         16.0595   -1.2949   52.7251 cF      1  lig      -0.009279
     25 C_0o         18.0581   -2.6075   54.2282 cG      1  lig       0.038049
     26 C_0p         22.5441   -0.1340   54.3114 cH      1  lig      -0.086091
     27 C_0q         22.6354    1.8192   53.2444 cI      1  lig       0.300376
     28 C_0r         20.2696    2.3464   52.8298 cJ      1  lig      -0.315815
     29 C_0s         15.3830    0.2436   50.8710 cK      1  lig      -0.007864
     30 C_0t         13.7523   -0.3360   52.6878 cL      1  lig      -0.035005
     31 C_0u         14.1176    0.5847   50.0611 cM      1  lig       0.094000
     32 C_0v         13.1424    1.0152   52.2654 cN      1  lig       0.094116
     33 C_0w         29.8721    0.1303   57.9146 cO      1  lig      -0.252653
     34 N_0x         20.9805   -3.4985   56.3217 n0      1  lig      -0.678446
     35 N_0y         20.8250   -1.7044   54.7318 ng      1  lig      -0.241058
     36 N_0z         23.9035    1.4817   53.4757 nr      1  lig      -0.504248
     37 N_10         21.7546    0.8477   53.7078 nw      1  lig       0.099338
     38 N_11         15.0550   -0.5671   52.0458 nA      1  lig      -0.112501
     39 N_12         19.0188   -3.1743   55.0843 nB      1  lig      -0.494617
     40 N_13         28.0938   -0.2309   56.2974 nC      1  lig      -0.360130
     41 O_14         29.5243   -1.9498   56.7972 o0      1  lig      -0.587402
     42 O_15         13.0574    1.1466   50.8442 o1      1  lig      -0.424566
     43 S_16         21.7841    3.1702   52.5146 s0      1  lig       0.002255
     44 H_17         26.4237   -3.5093   53.4871 h0      1  lig       0.165252
     45 H_18         24.4121   -2.1634   53.0485 h6      1  lig       0.106272
     46 H_19         31.0769    0.1096   55.3691 h7      1  lig       0.125220
     47 H_1a         30.8965    2.3323   59.0331 h8      1  lig       0.142688
     48 H_1b         17.7388   -0.5423   51.5687 h9      1  lig       0.102773
     49 H_1c         28.1876   -2.6648   54.9437 hb      1  lig       0.162533
     50 H_1d         23.8280   -1.6674   56.2777 hd      1  lig       0.118080
     51 H_1e         22.7528   -3.6124   57.3954 he      1  lig       0.099968
     52 H_1f         19.6517    0.4338   53.7575 hf      1  lig       0.153342
     53 H_1g         33.3329    3.7096   55.7940 hg      1  lig       0.129788
     54 H_1h         32.6392    1.7579   54.4448 hh      1  lig       0.146600
     55 H_1i         32.4916    3.9773   58.0978 hi      1  lig       0.145835
     56 H_1j         14.6917   -2.3309   54.0468 hj      1  lig       0.122063
     57 H_1k         19.4116   -1.7155   52.7889 hk      1  lig       0.078692
     58 H_1l         16.3731   -3.4293   55.3128 hl      1  lig       0.148363
     59 H_1m         25.9310    0.9602   55.5378 hm      1  lig       0.160868
     60 H_1n         19.3436    2.8120   52.5271 hq      1  lig       0.261072
     61 H_1o         16.0861   -0.2807   50.2279 hr      1  lig       0.058715
     62 H_1p         15.8701    1.1601   51.1984 ht      1  lig       0.058715
     63 H_1q         13.8403   -0.3362   53.7749 hu      1  lig       0.069400
     64 H_1r         13.0766   -1.1482   52.4186 hv      1  lig       0.069400
     65 H_1s         14.3607    1.2776   49.2567 hy      1  lig       0.061139
     66 H_1t         13.7351   -0.3205   49.5872 hz      1  lig       0.061139
     67 H_1u         12.1479    1.1440   52.6932 hA      1  lig       0.057076
     68 H_1v         13.7519    1.8342   52.6513 hB      1  lig       0.057076
     69 H_1w         30.4330   -0.4704   58.6276 hC      1  lig       0.109360
     70 H_1x         29.1320    0.6802   58.4981 hD      1  lig       0.109360
     71 H_1y         18.6634   -3.8923   55.7023 hE      1  lig       0.332329
     72 H_1z         27.9118    0.7324   56.5484 hF      1  lig       0.251850
@<TRIPOS>BOND
     1     1     2    2
     2     1     6    1
     3     1    44    1
     4     2    23    1
     5     2    45    1
     6     3     9    2
     7     3    17    1
     8     3    46    1
     9     4     9    1
    10     4    18    2
    11     4    47    1
    12     5    20    2
    13     5    24    1
    14     5    48    1
    15     6    10    2
    16     6    49    1
    17     7     8    2
    18     7    11    1
    19     7    50    1
    20     8    34    1
    21     8    51    1
    22     9    33    1
    23    10    22    1
    24    10    40    1
    25    11    26    1
    26    11    35    2
    27    12    23    1
    28    12    26    2
    29    12    36    1
    30    13    34    2
    31    13    35    1
    32    13    39    1
    33    14    28    2
    34    14    37    1
    35    14    52    1
    36    15    33    1
    37    15    40    1
    38    15    41    2
    39    16    17    2
    40    16    18    1
    41    16    53    1
    42    17    54    1
    43    18    55    1
    44    19    21    1
    45    19    24    2
    46    19    56    1
    47    20    25    1
    48    20    57    1
    49    21    25    2
    50    21    58    1
    51    22    23    2
    52    22    59    1
    53    24    38    1
    54    25    39    1
    55    26    37    1
    56    27    36    2
    57    27    37    1
    58    27    43    1
    59    28    43    1
    60    28    60    1
    61    29    31    1
    62    29    38    1
    63    29    61    1
    64    29    62    1
    65    30    32    1
    66    30    38    1
    67    30    63    1
    68    30    64    1
    69    31    42    1
    70    31    65    1
    71    31    66    1
    72    32    42    1
    73    32    67    1
    74    32    68    1
    75    33    69    1
    76    33    70    1
    77    39    71    1
    78    40    72    1
