@<TRIPOS>MOLECULE
lig
  80   86 0 0 0
SMALL
NO_CHARGES


@<TRIPOS>ATOM
      1 C_00         26.3250   -2.5289   53.9312 c4      1  lig      -0.259042
      2 C_01         25.1880   -1.7631   53.6847 c5      1  lig      -0.094709
      3 C_02         31.3565    0.9605   55.9703 c6      1  lig      -0.128138
      4 C_03         31.2675    2.2117   58.0273 c7      1  lig      -0.149011
      5 C_04         17.4134   -1.1718   52.3828 c8      1  lig      -0.156238
      6 C_05         27.3251   -2.0411   54.7687 c9      1  lig      -0.050045
      7 C_06         22.8368   -1.9839   55.9934 cb      1  lig      -0.245966
      8 C_07         22.2341   -3.0719   56.6245 ci      1  lig       0.252049
      9 C_08         30.8405    1.1222   57.2650 cj      1  lig       0.068420
     10 C_09         27.1824   -0.7831   55.3770 ck      1  lig       0.062811
     11 C_0a         22.0803   -1.3110   55.0248 cm      1  lig       0.156693
     12 C_0b         23.8462    0.2869   54.0200 cn      1  lig       0.165543
     13 C_0c         20.3324   -2.7881   55.3696 co      1  lig       0.674918
     14 C_0d         20.4155    1.1296   53.4655 cq      1  lig      -0.075374
     15 C_0e         29.1348   -0.7936   56.9377 cr      1  lig       0.619659
     16 C_0f         32.6424    2.9881   56.2032 cs      1  lig      -0.093474
     17 C_0g         32.2462    1.8921   55.4412 ct      1  lig      -0.169057
     18 C_0h         32.1649    3.1401   57.5018 cw      1  lig      -0.169457
     19 C_0i         15.7222   -2.1598   53.7721 cA      1  lig      -0.224812
     20 C_0j         18.3935   -1.8364   53.1102 cB      1  lig      -0.038114
     21 C_0k         16.7066   -2.8050   54.5083 cC      1  lig      -0.132618
     22 C_0l         26.0578   -0.0100   55.0848 cD      1  lig      -0.170226
     23 C_0m         25.0485   -0.4908   54.2510 cE      1  lig       0.039619
     24 C_0n         16.0591   -1.2820   52.7340 cF      1  lig       0.021934
     25 C_0o         18.0579   -2.6074   54.2282 cG      1  lig       0.087820
     26 C_0p         22.5441   -0.1340   54.3114 cH      1  lig      -0.096005
     27 C_0q         22.6354    1.8192   53.2444 cI      1  lig       0.280551
     28 C_0r         20.2696    2.3464   52.8298 cJ      1  lig      -0.364294
     29 C_0s         15.3180    0.2990   50.9014 cK      1  lig       0.010004
     30 C_0t         13.7649   -0.2620   52.7429 cL      1  lig       0.003701
     31 C_0u         14.0485    0.5974   50.0679 cM      1  lig      -0.329190
     32 C_0v         13.1765    1.1314   52.4520 cN      1  lig      -0.141017
     33 C_0w         29.8721    0.1303   57.9146 cO      1  lig      -0.249458
     34 N_0x         20.9805   -3.4985   56.3217 n0      1  lig      -0.645207
     35 N_0y         20.8250   -1.7044   54.7318 ng      1  lig      -0.283492
     36 N_0z         23.9035    1.4817   53.4757 nr      1  lig      -0.482669
     37 N_10         21.7546    0.8477   53.7078 nw      1  lig       0.093955
     38 N_11         15.0669   -0.5318   52.0942 nA      1  lig      -0.188351
     39 N_12         19.0176   -3.1739   55.0832 nB      1  lig      -0.488136
     40 N_13         28.0938   -0.2309   56.2974 nC      1  lig      -0.356243
     41 O_14         29.5243   -1.9498   56.7972 o0      1  lig      -0.579708
     42 N_15         12.9596    1.3073   50.9257 nD      1  lig      -0.062802
     43 S_16         21.7841    3.1702   52.5146 s0      1  lig       0.029298
     44 H_17         26.4237   -3.5093   53.4871 h0      1  lig       0.166904
     45 H_18         24.4121   -2.1634   53.0485 h6      1  lig       0.114976
     46 H_19         31.0769    0.1096   55.3691 h7      1  lig       0.123576
     47 H_1a         30.8965    2.3323   59.0331 h8      1  lig       0.141635
     48 H_1b         17.7388   -0.5424   51.5687 h9      1  lig       0.107070
     49 H_1c         28.1876   -2.6648   54.9437 hb      1  lig       0.163700
     50 H_1d         23.8280   -1.6674   56.2777 hd      1  lig       0.116908
     51 H_1e         22.7528   -3.6124   57.3954 he      1  lig       0.121072
     52 H_1f         19.6519    0.4339   53.7574 hf      1  lig       0.135555
     53 H_1g         33.3329    3.7096   55.7940 hg      1  lig       0.131045
     54 H_1h         32.6392    1.7579   54.4448 hh      1  lig       0.146419
     55 H_1i         32.4916    3.9773   58.0978 hi      1  lig       0.147569
     56 H_1j         14.6918   -2.3308   54.0468 hj      1  lig       0.151537
     57 H_1k         19.4119   -1.7155   52.7891 hk      1  lig       0.063192
     58 H_1l         16.3733   -3.4295   55.3131 hl      1  lig       0.159506
     59 H_1m         25.9310    0.9602   55.5378 hm      1  lig       0.159158
     60 H_1n         19.3436    2.8120   52.5271 hq      1  lig       0.267642
     61 H_1o         16.0126   -0.2326   50.2505 hr      1  lig       0.116728
     62 H_1p         15.8211    1.2235   51.1940 ht      1  lig       0.116728
     63 H_1q         13.8890   -0.3012   53.8281 hu      1  lig       0.091619
     64 H_1r         13.0578   -1.0568   52.4943 hv      1  lig       0.091619
     65 H_1s         14.2677    1.1881   49.1754 hy      1  lig       0.185019
     66 H_1t         13.6026   -0.3408   49.7265 hz      1  lig       0.185019
     67 H_1u         12.2152    1.2808   52.9494 hA      1  lig       0.136700
     68 H_1v         13.8672    1.9006   52.8105 hB      1  lig       0.136700
     69 H_1w         30.4330   -0.4704   58.6276 hC      1  lig       0.110804
     70 H_1x         29.1320    0.6802   58.4981 hD      1  lig       0.110804
     71 H_1y         18.6640   -3.8922   55.7024 hE      1  lig       0.322412
     72 H_1z         27.9118    0.7324   56.5484 hF      1  lig       0.239297
     73 H_20         12.0745    0.8589   50.7131 hG      1  lig       0.322346
     74 C_21         12.8339    2.8126   50.5717 cP      1  lig      -0.073064
     75 C_22         11.9108    2.9656   49.3521 cQ      1  lig      -0.111846
     76 H_23         13.8456    3.2023   50.4126 hH      1  lig       0.120607
     77 H_24         12.4045    3.3286   51.4374 hI      1  lig       0.120607
     78 H_25         11.8779    4.0064   49.0240 hJ      1  lig       0.072105
     79 H_26         12.2321    2.3712   48.4952 hK      1  lig       0.072105
     80 H_27         10.8832    2.6807   49.5895 hL      1  lig       0.072105
@<TRIPOS>BOND
     1     1     2    2
     2     1     6    1
     3     1    44    1
     4     2    23    1
     5     2    45    1
     6     3     9    2
     7     3    17    1
     8     3    46    1
     9     4     9    1
    10     4    18    2
    11     4    47    1
    12     5    20    2
    13     5    24    1
    14     5    48    1
    15     6    10    2
    16     6    49    1
    17     7     8    2
    18     7    11    1
    19     7    50    1
    20     8    34    1
    21     8    51    1
    22     9    33    1
    23    10    22    1
    24    10    40    1
    25    11    26    1
    26    11    35    2
    27    12    23    1
    28    12    26    2
    29    12    36    1
    30    13    34    2
    31    13    35    1
    32    13    39    1
    33    14    28    2
    34    14    37    1
    35    14    52    1
    36    15    33    1
    37    15    40    1
    38    15    41    2
    39    16    17    2
    40    16    18    1
    41    16    53    1
    42    17    54    1
    43    18    55    1
    44    19    21    1
    45    19    24    2
    46    19    56    1
    47    20    25    1
    48    20    57    1
    49    21    25    2
    50    21    58    1
    51    22    23    2
    52    22    59    1
    53    24    38    1
    54    25    39    1
    55    26    37    1
    56    27    36    2
    57    27    37    1
    58    27    43    1
    59    28    43    1
    60    28    60    1
    61    29    31    1
    62    29    38    1
    63    29    61    1
    64    29    62    1
    65    30    32    1
    66    30    38    1
    67    30    63    1
    68    30    64    1
    69    31    42    1
    70    31    65    1
    71    31    66    1
    72    32    42    1
    73    32    67    1
    74    32    68    1
    75    33    69    1
    76    33    70    1
    77    39    71    1
    78    40    72    1
    79    42    73    1
    80    42    74    1
    81    74    75    1
    82    74    76    1
    83    74    77    1
    84    75    78    1
    85    75    79    1
    86    75    80    1
