@<TRIPOS>MOLECULE
lig
  74   79 0 0 0
SMALL
NO_CHARGES


@<TRIPOS>ATOM
      1 C_00         26.3250   -2.5289   53.9312 c4      1  lig      -0.264887
      2 C_01         25.1880   -1.7631   53.6847 c5      1  lig      -0.086446
      3 C_02         31.3565    0.9605   55.9703 c6      1  lig      -0.126336
      4 C_03         31.2675    2.2117   58.0273 c7      1  lig      -0.148706
      5 C_04         17.4192   -1.2180   52.3458 c8      1  lig      -0.197427
      6 C_05         27.3251   -2.0411   54.7687 c9      1  lig      -0.049941
      7 C_06         22.8368   -1.9839   55.9934 cb      1  lig      -0.238837
      8 C_07         22.2341   -3.0719   56.6245 ci      1  lig       0.253321
      9 C_08         30.8405    1.1222   57.2650 cj      1  lig       0.063283
     10 C_09         27.1824   -0.7831   55.3770 ck      1  lig       0.063587
     11 C_0a         22.0803   -1.3110   55.0248 cm      1  lig       0.153897
     12 C_0b         23.8462    0.2869   54.0200 cn      1  lig       0.176203
     13 C_0c         20.3335   -2.7883   55.3697 co      1  lig       0.635259
     14 C_0d         20.4155    1.1296   53.4655 cq      1  lig      -0.123796
     15 C_0e         29.1348   -0.7936   56.9377 cr      1  lig       0.621345
     16 C_0f         32.6424    2.9881   56.2032 cs      1  lig      -0.093276
     17 C_0g         32.2462    1.8921   55.4412 ct      1  lig      -0.166199
     18 C_0h         32.1649    3.1401   57.5018 cw      1  lig      -0.170222
     19 C_0i         15.7157   -2.0936   53.7652 cA      1  lig      -0.020069
     20 C_0j         18.3930   -1.8875   53.0762 cB      1  lig       0.007790
     21 C_0k         16.7070   -2.7511   54.5425 cC      1  lig      -0.177843
     22 C_0l         26.0578   -0.0100   55.0848 cD      1  lig      -0.170620
     23 C_0m         25.0485   -0.4908   54.2510 cE      1  lig       0.037219
     24 C_0n         16.0703   -1.2851   52.7197 cF      1  lig      -0.186884
     25 C_0o         18.0583   -2.6073   54.2282 cG      1  lig       0.062319
     26 C_0p         22.5441   -0.1340   54.3114 cH      1  lig      -0.103827
     27 C_0q         22.6354    1.8192   53.2444 cI      1  lig       0.288308
     28 C_0r         20.2696    2.3464   52.8298 cJ      1  lig      -0.335791
     29 C_0s         29.8721    0.1303   57.9146 cK      1  lig      -0.242392
     30 N_0t         20.9805   -3.4985   56.3217 n0      1  lig      -0.641237
     31 N_0u         20.8250   -1.7044   54.7318 ng      1  lig      -0.263437
     32 N_0v         23.9035    1.4817   53.4757 nr      1  lig      -0.485495
     33 N_0w         21.7546    0.8477   53.7078 nw      1  lig       0.099489
     34 N_0x         19.0179   -3.1744   55.0842 nA      1  lig      -0.435146
     35 N_0y         28.0938   -0.2309   56.2974 nB      1  lig      -0.355706
     36 O_0z         29.5243   -1.9498   56.7972 o0      1  lig      -0.582690
     37 S_10         21.7841    3.1702   52.5146 s0      1  lig       0.035564
     38 H_11         26.4237   -3.5093   53.4871 h0      1  lig       0.166801
     39 H_12         24.4121   -2.1634   53.0485 h6      1  lig       0.110537
     40 H_13         31.0769    0.1096   55.3691 h7      1  lig       0.123132
     41 H_14         30.8965    2.3323   59.0331 h8      1  lig       0.140937
     42 H_15         17.7464   -0.6286   51.5029 h9      1  lig       0.168960
     43 H_16         28.1876   -2.6648   54.9437 hb      1  lig       0.165560
     44 H_17         23.8280   -1.6674   56.2777 hd      1  lig       0.115121
     45 H_18         22.7528   -3.6124   57.3954 he      1  lig       0.118820
     46 H_19         19.6517    0.4338   53.7575 hf      1  lig       0.161942
     47 H_1a         33.3329    3.7096   55.7940 hg      1  lig       0.131266
     48 H_1b         32.6392    1.7579   54.4448 hh      1  lig       0.146167
     49 H_1c         32.4916    3.9773   58.0978 hi      1  lig       0.147314
     50 H_1d         19.4076   -1.8112   52.7302 hj      1  lig       0.048959
     51 H_1e         16.3720   -3.3356   55.3761 hk      1  lig       0.145144
     52 H_1f         25.9310    0.9602   55.5378 hl      1  lig       0.158920
     53 H_1g         19.3436    2.8120   52.5271 hm      1  lig       0.269857
     54 H_1h         30.4330   -0.4704   58.6276 hq      1  lig       0.109168
     55 H_1i         29.1320    0.6802   58.4981 hr      1  lig       0.109168
     56 H_1j         18.6634   -3.8923   55.7022 ht      1  lig       0.302717
     57 H_1k         27.9118    0.7324   56.5484 hu      1  lig       0.239332
     58 H_1l         15.3298   -0.7171   52.1759 hv      1  lig       0.144634
     59 C_1m         14.2371   -2.1753   54.0331 cL      1  lig      -0.040869
     60 H_1n         14.0216   -3.2270   54.2056 hy      1  lig       0.062502
     61 H_1o         14.1463   -1.5513   54.9102 hz      1  lig       0.062502
     62 C_1p         13.2218   -1.5546   53.0477 cM      1  lig      -0.113866
     63 H_1q         13.3698   -0.4718   52.9931 hA      1  lig       0.128760
     64 H_1r         13.2684   -1.9835   52.0457 hB      1  lig       0.128760
     65 N_1s         11.7805   -1.7257   53.5911 nC      1  lig       0.003744
     66 H_1t         11.7972   -1.3907   54.5546 hC      1  lig       0.308872
     67 C_1u         10.7854   -0.8424   52.7940 cN      1  lig      -0.294630
     68 H_1v          9.7820   -0.9764   53.2089 hD      1  lig       0.162672
     69 H_1w         11.0921    0.2031   52.9017 hE      1  lig       0.162672
     70 H_1x         10.8146   -1.1450   51.7426 hF      1  lig       0.162672
     71 C_1y         11.3240   -3.2077   53.6404 cO      1  lig      -0.259546
     72 H_1z         10.2647   -3.2444   53.9068 hG      1  lig       0.156975
     73 H_20         11.4967   -3.6623   52.6612 hH      1  lig       0.156975
     74 H_21         11.9013   -3.7211   54.4140 hI      1  lig       0.156975
@<TRIPOS>BOND
     1     1     2    2
     2     1     6    1
     3     1    38    1
     4     2    23    1
     5     2    39    1
     6     3     9    2
     7     3    17    1
     8     3    40    1
     9     4     9    1
    10     4    18    2
    11     4    41    1
    12     5    20    2
    13     5    24    1
    14     5    42    1
    15     6    10    2
    16     6    43    1
    17     7     8    2
    18     7    11    1
    19     7    44    1
    20     8    30    1
    21     8    45    1
    22     9    29    1
    23    10    22    1
    24    10    35    1
    25    11    26    1
    26    11    31    2
    27    12    23    1
    28    12    26    2
    29    12    32    1
    30    13    30    2
    31    13    31    1
    32    13    34    1
    33    14    28    2
    34    14    33    1
    35    14    46    1
    36    15    29    1
    37    15    35    1
    38    15    36    2
    39    16    17    2
    40    16    18    1
    41    16    47    1
    42    17    48    1
    43    18    49    1
    44    19    21    1
    45    19    24    2
    46    19    59    1
    47    20    25    1
    48    20    50    1
    49    21    25    2
    50    21    51    1
    51    22    23    2
    52    22    52    1
    53    24    58    1
    54    25    34    1
    55    26    33    1
    56    27    32    2
    57    27    33    1
    58    27    37    1
    59    28    37    1
    60    28    53    1
    61    29    54    1
    62    29    55    1
    63    34    56    1
    64    35    57    1
    65    59    60    1
    66    59    61    1
    67    59    62    1
    68    62    63    1
    69    62    64    1
    70    62    65    1
    71    65    66    1
    72    65    67    1
    73    65    71    1
    74    67    68    1
    75    67    69    1
    76    67    70    1
    77    71    72    1
    78    71    73    1
    79    71    74    1
