@<TRIPOS>MOLECULE
lig
  73   78 0 0 0
SMALL
NO_CHARGES


@<TRIPOS>ATOM
      1 C_00         26.3250   -2.5289   53.9312 c4      1  lig      -0.272169
      2 C_01         25.1880   -1.7631   53.6847 c5      1  lig      -0.071192
      3 C_02         31.3565    0.9605   55.9703 c6      1  lig      -0.134133
      4 C_03         31.2675    2.2117   58.0273 c7      1  lig      -0.151520
      5 C_04         17.4192   -1.2180   52.3458 c8      1  lig      -0.189471
      6 C_05         27.3251   -2.0411   54.7687 c9      1  lig      -0.055181
      7 C_06         22.8368   -1.9839   55.9934 cb      1  lig      -0.290142
      8 C_07         22.2341   -3.0719   56.6245 ci      1  lig       0.291228
      9 C_08         30.8405    1.1222   57.2650 cj      1  lig       0.059885
     10 C_09         27.1824   -0.7831   55.3770 ck      1  lig       0.055865
     11 C_0a         22.0803   -1.3110   55.0248 cm      1  lig       0.154685
     12 C_0b         23.8462    0.2869   54.0200 cn      1  lig       0.151790
     13 C_0c         20.3335   -2.7883   55.3697 co      1  lig       0.644441
     14 C_0d         20.4155    1.1296   53.4655 cq      1  lig      -0.144609
     15 C_0e         29.1348   -0.7936   56.9377 cr      1  lig       0.619082
     16 C_0f         32.6424    2.9881   56.2032 cs      1  lig      -0.091999
     17 C_0g         32.2462    1.8921   55.4412 ct      1  lig      -0.167182
     18 C_0h         32.1649    3.1401   57.5018 cw      1  lig      -0.167671
     19 C_0i         15.7078   -2.1012   53.7600 cA      1  lig      -0.048277
     20 C_0j         18.3930   -1.8875   53.0762 cB      1  lig       0.000196
     21 C_0k         16.7069   -2.7511   54.5425 cC      1  lig      -0.165321
     22 C_0l         26.0578   -0.0100   55.0848 cD      1  lig      -0.179886
     23 C_0m         25.0485   -0.4908   54.2510 cE      1  lig       0.055750
     24 C_0n         16.0703   -1.2851   52.7197 cF      1  lig      -0.192240
     25 C_0o         18.0583   -2.6073   54.2282 cG      1  lig       0.030172
     26 C_0p         22.5441   -0.1340   54.3114 cH      1  lig      -0.088727
     27 C_0q         22.6354    1.8192   53.2444 cI      1  lig       0.304358
     28 C_0r         20.2696    2.3464   52.8298 cJ      1  lig      -0.316502
     29 C_0s         29.8721    0.1303   57.9146 cK      1  lig      -0.241530
     30 N_0t         20.9805   -3.4985   56.3217 n0      1  lig      -0.666383
     31 N_0u         20.8250   -1.7044   54.7318 ng      1  lig      -0.250445
     32 N_0v         23.9035    1.4817   53.4757 nr      1  lig      -0.502698
     33 N_0w         21.7546    0.8477   53.7078 nw      1  lig       0.101362
     34 N_0x         19.0179   -3.1744   55.0843 nA      1  lig      -0.448183
     35 N_0y         28.0938   -0.2309   56.2974 nB      1  lig      -0.358835
     36 O_0z         29.5243   -1.9498   56.7972 o0      1  lig      -0.587607
     37 S_10         21.7841    3.1702   52.5146 s0      1  lig       0.003831
     38 H_11         26.4237   -3.5093   53.4871 h0      1  lig       0.165672
     39 H_12         24.4121   -2.1634   53.0485 h6      1  lig       0.109534
     40 H_13         31.0769    0.1096   55.3691 h7      1  lig       0.126812
     41 H_14         30.8965    2.3323   59.0331 h8      1  lig       0.141653
     42 H_15         17.7464   -0.6286   51.5030 h9      1  lig       0.143922
     43 H_16         28.1876   -2.6648   54.9437 hb      1  lig       0.164095
     44 H_17         23.8280   -1.6674   56.2777 hd      1  lig       0.117666
     45 H_18         22.7528   -3.6124   57.3954 he      1  lig       0.102293
     46 H_19         19.6517    0.4338   53.7575 hf      1  lig       0.170327
     47 H_1a         33.3329    3.7096   55.7940 hg      1  lig       0.129505
     48 H_1b         32.6392    1.7579   54.4448 hh      1  lig       0.146440
     49 H_1c         32.4916    3.9773   58.0978 hi      1  lig       0.144929
     50 H_1d         19.4076   -1.8112   52.7302 hj      1  lig       0.050955
     51 H_1e         16.3719   -3.3356   55.3761 hk      1  lig       0.145184
     52 H_1f         25.9310    0.9602   55.5378 hl      1  lig       0.159534
     53 H_1g         19.3436    2.8120   52.5271 hm      1  lig       0.264678
     54 H_1h         30.4330   -0.4704   58.6276 hq      1  lig       0.107026
     55 H_1i         29.1320    0.6802   58.4981 hr      1  lig       0.107026
     56 H_1j         18.6634   -3.8922   55.7022 ht      1  lig       0.316646
     57 H_1k         27.9118    0.7324   56.5484 hu      1  lig       0.251066
     58 H_1l         15.3298   -0.7171   52.1759 hv      1  lig       0.157377
     59 C_1m         14.2141   -2.1843   54.0082 cL      1  lig       0.010474
     60 H_1n         13.9931   -3.2296   54.2008 hy      1  lig       0.048119
     61 H_1o         14.0663   -1.5430   54.8681 hz      1  lig       0.048119
     62 C_1p         13.1938   -1.6151   52.9868 cM      1  lig      -0.024120
     63 H_1q         13.3972   -0.5490   52.8673 hA      1  lig       0.066809
     64 H_1r         13.3109   -2.0805   52.0064 hB      1  lig       0.066809
     65 N_1s         11.8133   -1.7289   53.4731 nC      1  lig      -0.341698
     66 C_1t         10.9023   -0.9034   52.6846 cN      1  lig      -0.070408
     67 H_1u          9.8822   -0.9774   53.0659 hC      1  lig       0.062808
     68 H_1v         11.1860    0.1489   52.7490 hD      1  lig       0.062808
     69 H_1w         10.8961   -1.1928   51.6324 hE      1  lig       0.062808
     70 C_1x         11.3420   -3.1131   53.5313 cO      1  lig      -0.128813
     71 H_1y         10.2885   -3.1581   53.8102 hF      1  lig       0.074401
     72 H_1z         11.4643   -3.6218   52.5740 hG      1  lig       0.074401
     73 H_20         11.8822   -3.6780   54.2917 hH      1  lig       0.074401
@<TRIPOS>BOND
     1     1     2    2
     2     1     6    1
     3     1    38    1
     4     2    23    1
     5     2    39    1
     6     3     9    2
     7     3    17    1
     8     3    40    1
     9     4     9    1
    10     4    18    2
    11     4    41    1
    12     5    20    2
    13     5    24    1
    14     5    42    1
    15     6    10    2
    16     6    43    1
    17     7     8    2
    18     7    11    1
    19     7    44    1
    20     8    30    1
    21     8    45    1
    22     9    29    1
    23    10    22    1
    24    10    35    1
    25    11    26    1
    26    11    31    2
    27    12    23    1
    28    12    26    2
    29    12    32    1
    30    13    30    2
    31    13    31    1
    32    13    34    1
    33    14    28    2
    34    14    33    1
    35    14    46    1
    36    15    29    1
    37    15    35    1
    38    15    36    2
    39    16    17    2
    40    16    18    1
    41    16    47    1
    42    17    48    1
    43    18    49    1
    44    19    21    1
    45    19    24    2
    46    19    59    1
    47    20    25    1
    48    20    50    1
    49    21    25    2
    50    21    51    1
    51    22    23    2
    52    22    52    1
    53    24    58    1
    54    25    34    1
    55    26    33    1
    56    27    32    2
    57    27    33    1
    58    27    37    1
    59    28    37    1
    60    28    53    1
    61    29    54    1
    62    29    55    1
    63    34    56    1
    64    35    57    1
    65    59    60    1
    66    59    61    1
    67    59    62    1
    68    62    63    1
    69    62    64    1
    70    62    65    1
    71    65    66    1
    72    65    70    1
    73    66    67    1
    74    66    68    1
    75    66    69    1
    76    70    71    1
    77    70    72    1
    78    70    73    1
