@<TRIPOS>MOLECULE
lig
  69   75 0 0 0
SMALL
NO_CHARGES


@<TRIPOS>ATOM
      1 C_00         26.3250   -2.5289   53.9312 c4      1  lig      -0.261158
      2 C_01         25.1880   -1.7631   53.6847 c5      1  lig      -0.092196
      3 C_02         31.3565    0.9605   55.9703 c6      1  lig      -0.124309
      4 C_03         31.2675    2.2117   58.0273 c7      1  lig      -0.147944
      5 C_04         17.3880   -1.4797   52.1851 c8      1  lig      -0.236450
      6 C_05         27.3251   -2.0411   54.7687 c9      1  lig      -0.048334
      7 C_06         22.8368   -1.9837   55.9931 cb      1  lig      -0.230209
      8 C_07         22.2339   -3.0718   56.6244 ci      1  lig       0.247029
      9 C_08         30.8405    1.1222   57.2650 cj      1  lig       0.063580
     10 C_09         27.1824   -0.7831   55.3770 ck      1  lig       0.063245
     11 C_0a         22.0802   -1.3124   55.0271 cm      1  lig       0.160179
     12 C_0b         23.8462    0.2869   54.0200 cn      1  lig       0.178790
     13 C_0c         20.3311   -2.7864   55.3671 co      1  lig       0.643616
     14 C_0d         20.4172    1.1325   53.4604 cq      1  lig      -0.099192
     15 C_0e         29.1348   -0.7936   56.9377 cr      1  lig       0.620172
     16 C_0f         32.6424    2.9881   56.2032 cs      1  lig      -0.093238
     17 C_0g         32.2462    1.8921   55.4412 ct      1  lig      -0.167713
     18 C_0h         32.1649    3.1401   57.5018 cw      1  lig      -0.170525
     19 C_0i         15.7372   -1.8987   53.8884 cA      1  lig      -0.037384
     20 C_0j         18.3475   -2.1622   52.9310 cB      1  lig       0.005323
     21 C_0k         16.7598   -2.4629   54.6795 cC      1  lig      -0.236596
     22 C_0l         26.0578   -0.0100   55.0848 cD      1  lig      -0.167139
     23 C_0m         25.0485   -0.4908   54.2510 cE      1  lig       0.033038
     24 C_0n         16.0803   -1.3515   52.6345 cF      1  lig      -0.026089
     25 C_0o         18.0655   -2.6290   54.2144 cG      1  lig       0.102243
     26 C_0p         22.5451   -0.1339   54.3087 cH      1  lig      -0.099924
     27 C_0q         22.6354    1.8192   53.2444 cI      1  lig       0.287841
     28 C_0r         20.2690    2.3453   52.8302 cJ      1  lig      -0.350552
     29 C_0s         29.8721    0.1303   57.9146 cK      1  lig      -0.247545
     30 N_0t         20.9804   -3.4981   56.3214 n0      1  lig      -0.632061
     31 N_0u         20.8257   -1.7062   54.7337 ng      1  lig      -0.282385
     32 N_0v         23.9035    1.4817   53.4757 nr      1  lig      -0.482272
     33 N_0w         21.7534    0.8470   53.7080 nw      1  lig       0.086944
     34 C_0x         15.0474   -0.6712   51.7456 cL      1  lig       0.010195
     35 N_0y         19.0234   -3.2608   55.0403 nA      1  lig      -0.439156
     36 N_0z         28.0938   -0.2309   56.2974 nB      1  lig      -0.353687
     37 O_10         29.5243   -1.9498   56.7972 o0      1  lig      -0.579986
     38 S_11         21.7841    3.1702   52.5146 s0      1  lig       0.043970
     39 H_12         26.4237   -3.5093   53.4871 h0      1  lig       0.167927
     40 H_13         24.4121   -2.1634   53.0485 h6      1  lig       0.113267
     41 H_14         31.0769    0.1096   55.3691 h7      1  lig       0.122640
     42 H_15         30.8965    2.3323   59.0331 h8      1  lig       0.141151
     43 H_16         28.1876   -2.6648   54.9437 h9      1  lig       0.165569
     44 H_17         23.8280   -1.6674   56.2777 hb      1  lig       0.115704
     45 H_18         22.7529   -3.6126   57.3955 hd      1  lig       0.123864
     46 H_19         19.6514    0.4342   53.7590 he      1  lig       0.143430
     47 H_1a         33.3329    3.7096   55.7940 hf      1  lig       0.131629
     48 H_1b         32.6392    1.7579   54.4448 hg      1  lig       0.146514
     49 H_1c         32.4916    3.9773   58.0978 hh      1  lig       0.147776
     50 H_1d         19.3187   -2.3128   52.4947 hi      1  lig       0.066501
     51 H_1e         16.4978   -2.8417   55.6486 hj      1  lig       0.184490
     52 H_1f         25.9310    0.9602   55.5378 hk      1  lig       0.159172
     53 H_1g         19.3434    2.8117   52.5273 hl      1  lig       0.272182
     54 H_1h         30.4247   -0.5217   58.6071 hm      1  lig       0.111820
     55 H_1i         29.0989    0.6823   58.4691 hq      1  lig       0.111820
     56 H_1j         18.5901   -4.0603   55.5703 hr      1  lig       0.306794
     57 H_1k         28.0066    0.8255   56.5914 ht      1  lig       0.236739
     58 H_1l         15.0330    0.3996   51.9700 hu      1  lig       0.058783
     59 C_1m         13.6596   -1.2914   51.9337 cM      1  lig      -0.013176
     60 C_1n         14.2763   -1.9496   54.3595 cN      1  lig      -0.044540
     61 H_1o         13.9181   -2.9778   54.3357 hv      1  lig       0.118187
     62 H_1p         14.1432   -1.5769   55.3762 hy      1  lig       0.118187
     63 N_1q         13.3189   -1.1633   53.4256 nC      1  lig      -0.099868
     64 H_1r         12.8892   -0.7483   51.3784 hz      1  lig       0.099141
     65 H_1s         13.6231   -2.3501   51.6628 hA      1  lig       0.099141
     66 H_1t         17.6692   -1.1112   51.2085 hB      1  lig       0.171692
     67 H_1u         15.3323   -0.7541   50.6937 hC      1  lig       0.058783
     68 H_1v         12.3613   -1.4463   53.5860 hD      1  lig       0.262280
     69 H_1w         13.3354   -0.1649   53.6485 hE      1  lig       0.262280
@<TRIPOS>BOND
     1     1     2    2
     2     1     6    1
     3     1    39    1
     4     2    23    1
     5     2    40    1
     6     3     9    2
     7     3    17    1
     8     3    41    1
     9     4     9    1
    10     4    18    2
    11     4    42    1
    12     5    20    2
    13     5    24    1
    14     5    66    1
    15     6    10    2
    16     6    43    1
    17     7     8    2
    18     7    11    1
    19     7    44    1
    20     8    30    1
    21     8    45    1
    22     9    29    1
    23    10    22    1
    24    10    36    1
    25    11    26    1
    26    11    31    2
    27    12    23    1
    28    12    26    2
    29    12    32    1
    30    13    30    2
    31    13    31    1
    32    13    35    1
    33    14    28    2
    34    14    33    1
    35    14    46    1
    36    15    29    1
    37    15    36    1
    38    15    37    2
    39    16    17    2
    40    16    18    1
    41    16    47    1
    42    17    48    1
    43    18    49    1
    44    19    21    1
    45    19    24    2
    46    19    60    1
    47    20    25    1
    48    20    50    1
    49    21    25    2
    50    21    51    1
    51    22    23    2
    52    22    52    1
    53    24    34    1
    54    25    35    1
    55    26    33    1
    56    27    32    2
    57    27    33    1
    58    27    38    1
    59    28    38    1
    60    28    53    1
    61    29    54    1
    62    29    55    1
    63    34    58    1
    64    34    59    1
    65    34    67    1
    66    35    56    1
    67    36    57    1
    68    59    63    1
    69    59    64    1
    70    59    65    1
    71    60    61    1
    72    60    62    1
    73    60    63    1
    74    63    68    1
    75    63    69    1
