@<TRIPOS>MOLECULE
lig
  36   36 0 0 0
SMALL
NO_CHARGES


@<TRIPOS>ATOM
      1 C_00         24.0713   12.3690   30.2524 c4      1  lig      -0.012704
      2 C_01         23.3106   11.0599   30.4602 c5      1  lig       0.192744
      3 O_02         22.1968   11.3345   31.2848 o0      1  lig      -0.397334
      4 C_03         21.3996   10.2822   31.7013 c6      1  lig       0.569257
      5 N_04         21.7456    9.0392   31.2731 n0      1  lig      -0.536606
      6 C_05         20.9690    8.0102   31.6444 c7      1  lig       0.213770
      7 C_06         19.8629    8.1543   32.4698 c8      1  lig      -0.278417
      8 C_07         19.5195    9.4255   32.8937 c9      1  lig       0.257265
      9 N_08         18.3840    9.5058   33.6916 ng      1  lig      -0.827096
     10 C_09         20.2911   10.5310   32.5019 cb      1  lig      -0.102041
     11 C_0a         19.9686   11.9007   32.8839 ci      1  lig       0.240579
     12 N_0b         19.7198   12.9913   33.1811 nr      1  lig      -0.454290
     13 N_0c         21.4280    6.8298   31.0994 nw      1  lig      -0.271304
     14 C_0d         20.8471    5.6238   31.0233 cj      1  lig       0.575410
     15 O_0e         19.7218    5.3642   31.4396 o1      1  lig      -0.547800
     16 C_0f         21.6453    4.5492   30.2959 ck      1  lig      -0.286178
     17 H_0g         23.3741   13.1661   29.9817 h0      1  lig       0.077076
     18 H_0h         24.5885   12.6678   31.1683 h6      1  lig       0.077076
     19 H_0i         22.9550   10.6521   29.5109 h7      1  lig       0.043966
     20 H_0j         23.9592   10.3144   30.9281 h8      1  lig       0.043966
     21 H_0k         19.2676    7.3076   32.7671 h9      1  lig       0.198290
     22 H_0l         17.9996   10.4112   33.9501 hb      1  lig       0.411365
     23 H_0m         17.9030    8.6580   33.9745 hd      1  lig       0.411365
     24 H_0n         22.3340    6.9318   30.6726 he      1  lig       0.241680
     25 H_0o         21.0986    3.6093   30.2959 hf      1  lig       0.098516
     26 H_0p         21.7112    4.8755   29.2640 hg      1  lig       0.098516
     27 H_0q         22.6359    4.4281   30.7342 hh      1  lig       0.098516
     28 N_0r         25.0758   12.2596   29.0675 nA      1  lig      -0.366132
     29 C_0s         25.9566   13.5355   28.9497 cm      1  lig      -0.086288
     30 C_0t         25.8678   10.9195   28.9655 cn      1  lig      -0.138228
     31 H_0u         26.4959   10.9584   28.0716 hi      1  lig       0.080073
     32 H_0v         25.1484   10.1050   28.8303 hj      1  lig       0.080073
     33 H_0w         26.9623   13.2785   28.6059 hk      1  lig       0.071614
     34 H_0x         25.4650   14.1725   28.2119 hl      1  lig       0.071614
     35 H_0y         26.0123   14.0618   29.9079 hm      1  lig       0.071614
     36 H_0z         26.4729   10.7581   29.8576 hq      1  lig       0.080073
@<TRIPOS>BOND
     1     1     2    1
     2     1    17    1
     3     1    18    1
     4     1    28    1
     5     2     3    1
     6     2    19    1
     7     2    20    1
     8     3     4    1
     9     4    10    2
    10     4     5    1
    11     5     6    2
    12     6     7    1
    13     6    13    1
    14     7     8    2
    15     7    21    1
    16     8     9    1
    17     8    10    1
    18     9    22    1
    19     9    23    1
    20    10    11    1
    21    11    12    3
    22    13    14    1
    23    13    24    1
    24    14    15    2
    25    14    16    1
    26    16    25    1
    27    16    26    1
    28    16    27    1
    29    28    29    1
    30    28    30    1
    31    29    33    1
    32    29    34    1
    33    29    35    1
    34    30    31    1
    35    30    32    1
    36    30    36    1
