@<TRIPOS>MOLECULE
lig
  30   30 0 0 0
SMALL
NO_CHARGES


@<TRIPOS>ATOM
      1 C_00         24.0769   12.4086   30.2277 c4      1  lig      -0.067528
      2 C_01         23.3366   11.0773   30.4269 c5      1  lig       0.190413
      3 O_02         22.2068   11.3324   31.2698 o0      1  lig      -0.391758
      4 C_03         21.4091   10.2865   31.6937 c6      1  lig       0.536661
      5 N_04         21.7456    9.0393   31.2731 n0      1  lig      -0.488055
      6 C_05         20.9690    8.0102   31.6444 c7      1  lig       0.198601
      7 C_06         19.8628    8.1544   32.4699 c8      1  lig      -0.277238
      8 C_07         19.5194    9.4255   32.8937 c9      1  lig       0.223405
      9 N_08         18.3842    9.5058   33.6915 ng      1  lig      -0.809340
     10 C_09         20.2911   10.5310   32.5018 cb      1  lig      -0.090541
     11 C_0a         19.9686   11.9007   32.8838 ci      1  lig       0.254077
     12 N_0b         19.7198   12.9913   33.1811 nr      1  lig      -0.477214
     13 N_0c         21.4271    6.8290   31.0991 nw      1  lig      -0.276203
     14 C_0d         20.8483    5.6249   31.0239 cj      1  lig       0.598614
     15 O_0e         19.7218    5.3642   31.4396 o1      1  lig      -0.571304
     16 C_0f         21.6453    4.5492   30.2959 ck      1  lig      -0.336477
     17 H_0g         23.4106   13.1496   29.7900 h0      1  lig       0.002906
     18 H_0h         24.4199   12.7967   31.1849 h6      1  lig       0.002905
     19 H_0i         22.9985   10.6729   29.4696 h7      1  lig       0.033436
     20 H_0j         24.0017   10.3399   30.8843 h8      1  lig       0.033436
     21 H_0k         19.2676    7.3077   32.7672 h9      1  lig       0.186490
     22 H_0l         17.9996   10.4112   33.9501 hb      1  lig       0.387509
     23 H_0m         17.9030    8.6579   33.9746 hd      1  lig       0.387509
     24 H_0n         22.3340    6.9317   30.6726 he      1  lig       0.244910
     25 H_0o         21.0986    3.6093   30.2959 hf      1  lig       0.107231
     26 H_0p         21.7112    4.8755   29.2640 hg      1  lig       0.107231
     27 H_0q         22.6359    4.4281   30.7342 hh      1  lig       0.107231
     28 C_0r         25.2955   12.2919   29.3161 cm      1  lig       0.794606
     29 O_0s         25.9311   13.3492   29.1281 o2      1  lig      -0.802135
     30 O_0t         25.5805   11.1773   28.8258 o3      1  lig      -0.809378
@<TRIPOS>BOND
     1     1     2    1
     2     1    17    1
     3     1    18    1
     4     1    28    1
     5     2     3    1
     6     2    19    1
     7     2    20    1
     8     3     4    1
     9     4    10    2
    10     4     5    1
    11     5     6    2
    12     6     7    1
    13     6    13    1
    14     7     8    2
    15     7    21    1
    16     8     9    1
    17     8    10    1
    18     9    22    1
    19     9    23    1
    20    10    11    1
    21    11    12    3
    22    13    14    1
    23    13    24    1
    24    14    15    2
    25    14    16    1
    26    16    25    1
    27    16    26    1
    28    16    27    1
    29    28    29    1
    30    28    30    2
