@<TRIPOS>MOLECULE
lig
  28   28 0 0 0
SMALL
NO_CHARGES


@<TRIPOS>ATOM
      1 C_00         24.0713   12.3690   30.2524 c4      1  lig      -0.086267
      2 C_01         23.3106   11.0599   30.4602 c5      1  lig       0.217978
      3 O_02         22.1968   11.3345   31.2848 o0      1  lig      -0.333908
      4 C_03         21.3996   10.2822   31.7013 c6      1  lig       0.485971
      5 N_04         21.7456    9.0392   31.2731 n0      1  lig      -0.518181
      6 C_05         20.9690    8.0102   31.6444 c7      1  lig       0.238309
      7 C_06         19.8629    8.1543   32.4698 c8      1  lig      -0.288483
      8 C_07         19.5195    9.4255   32.8937 c9      1  lig       0.251786
      9 N_08         18.3840    9.5058   33.6916 ng      1  lig      -0.813933
     10 C_09         20.2911   10.5310   32.5019 cb      1  lig      -0.066348
     11 C_0a         19.9686   11.9007   32.8839 ci      1  lig       0.217609
     12 N_0b         19.7198   12.9913   33.1811 nr      1  lig      -0.443806
     13 N_0c         21.4280    6.8298   31.0994 nw      1  lig      -0.288703
     14 C_0d         20.8471    5.6238   31.0233 cj      1  lig       0.581651
     15 O_0e         19.7218    5.3642   31.4396 o1      1  lig      -0.548164
     16 C_0f         21.6453    4.5492   30.2959 ck      1  lig      -0.293195
     17 H_0g         24.9345   12.2216   29.6036 h0      1  lig       0.033454
     18 H_0h         23.4300   13.1202   29.7898 h6      1  lig       0.033454
     19 H_0i         24.4250   12.7712   31.2018 h7      1  lig       0.033454
     20 H_0j         22.9801   10.6550   29.5008 h8      1  lig       0.015941
     21 H_0k         23.9680   10.3224   30.9268 h9      1  lig       0.015941
     22 H_0l         19.2676    7.3074   32.7670 hb      1  lig       0.200143
     23 H_0m         17.9993   10.4113   33.9504 hd      1  lig       0.406599
     24 H_0n         17.9026    8.6580   33.9748 he      1  lig       0.406599
     25 H_0o         22.3368    6.9338   30.6757 hf      1  lig       0.239975
     26 H_0p         21.0991    3.6090   30.2933 hg      1  lig       0.100708
     27 H_0q         21.7136    4.8768   29.2646 hh      1  lig       0.100708
     28 H_0r         22.6349    4.4281   30.7366 hi      1  lig       0.100708
@<TRIPOS>BOND
     1     1     2    1
     2     1    17    1
     3     1    18    1
     4     1    19    1
     5     2     3    1
     6     2    20    1
     7     2    21    1
     8     3     4    1
     9     4    10    2
    10     4     5    1
    11     5     6    2
    12     6     7    1
    13     6    13    1
    14     7     8    2
    15     7    22    1
    16     8     9    1
    17     8    10    1
    18     9    23    1
    19     9    24    1
    20    10    11    1
    21    11    12    3
    22    13    14    1
    23    13    25    1
    24    14    15    2
    25    14    16    1
    26    16    26    1
    27    16    27    1
    28    16    28    1
