@<TRIPOS>MOLECULE
lig
  31   33 0 0 0
SMALL
NO_CHARGES


@<TRIPOS>ATOM
      1 C_00        -15.3524  -19.2206  -25.9684 c4      1  lig      -0.063050
      2 C_01        -14.6526  -19.7081  -27.0823 c5      1  lig      -0.066245
      3 C_02        -15.8555  -20.1235  -25.0241 c6      1  lig      -0.247407
      4 C_03        -14.4541  -21.0636  -27.2485 c7      1  lig      -0.239295
      5 C_04        -15.6357  -21.4854  -25.1840 c8      1  lig      -0.143949
      6 N_05        -15.0526  -16.9445  -26.6871 n0      1  lig      -0.558843
      7 C_06        -14.9347  -21.9631  -26.2988 c9      1  lig       0.311334
      8 C_07        -15.2162  -15.5610  -26.5929 cb      1  lig       0.258748
      9 C_08        -15.9031  -15.0059  -25.5037 ci      1  lig       0.008027
     10 C_09        -15.4462  -12.8187  -26.3599 cj      1  lig      -0.162807
     11 C_0a        -14.7773  -13.3552  -27.4525 ck      1  lig      -0.141616
     12 C_0b        -16.0203  -13.6235  -25.3815 cm      1  lig      -0.194457
     13 C_0c        -14.6768  -14.7359  -27.5934 cn      1  lig      -0.179753
     14 C_0d        -16.5313  -15.9392  -24.4895 co      1  lig       0.496618
     15 N_0e        -16.2584  -17.2435  -24.7671 ng      1  lig      -0.383296
     16 C_0f        -15.5317  -17.7669  -25.8203 cq      1  lig       0.465964
     17 O_0g        -17.2406  -15.6098  -23.5374 o0      1  lig      -0.560057
     18 H_0h        -14.2525  -19.0464  -27.8382 h0      1  lig       0.140145
     19 H_0i        -16.3981  -19.7943  -24.1510 h6      1  lig       0.177409
     20 H_0j        -13.8938  -21.4078  -28.1049 h7      1  lig       0.153960
     21 H_0k        -15.9903  -22.1635  -24.4209 h8      1  lig       0.125490
     22 H_0l        -14.3604  -12.6891  -28.1964 h9      1  lig       0.158784
     23 H_0m        -16.5458  -13.1713  -24.5494 hb      1  lig       0.177226
     24 H_0n        -16.7352  -17.8915  -24.1540 hd      1  lig       0.296214
     25 H_0o        -14.1941  -15.1755  -28.4537 he      1  lig       0.141306
     26 H_0p        -15.5319  -11.7476  -26.2520 hf      1  lig       0.148602
     27 O_0q        -14.7216  -23.3010  -26.4574 o1      1  lig      -0.338962
     28 C_0r        -15.3339  -24.0453  -25.3080 cr      1  lig      -0.000608
     29 H_0s        -15.1636  -25.1144  -25.4348 hg      1  lig       0.073506
     30 H_0t        -14.8779  -23.7133  -24.3753 hh      1  lig       0.073506
     31 H_0u        -16.4058  -23.8498  -25.2776 hi      1  lig       0.073506
@<TRIPOS>BOND
     1     1     2    1
     2     1     3    2
     3     1    16    1
     4     2     4    2
     5     2    18    1
     6     3     5    1
     7     3    19    1
     8     4     7    1
     9     4    20    1
    10     5     7    2
    11     5    21    1
    12     6     8    1
    13     6    16    2
    14     7    27    1
    15     8     9    2
    16     8    13    1
    17     9    12    1
    18     9    14    1
    19    10    11    1
    20    10    12    2
    21    10    26    1
    22    11    13    2
    23    11    22    1
    24    12    23    1
    25    13    25    1
    26    14    15    1
    27    14    17    2
    28    15    16    1
    29    15    24    1
    30    27    28    1
    31    28    29    1
    32    28    30    1
    33    28    31    1
