@<TRIPOS>MOLECULE
lig
  39   41 0 0 0
SMALL
NO_CHARGES


@<TRIPOS>ATOM
      1 N_00        -14.9816  -16.8848  -26.7516 n0      1  lig      -0.526150
      2 C_01        -15.4574  -17.7370  -25.9019 c4      1  lig       0.401541
      3 N_02        -16.1716  -17.2489  -24.8288 ng      1  lig      -0.348226
      4 C_03        -16.4816  -15.9693  -24.5201 c5      1  lig       0.473392
      5 O_04        -17.2339  -15.7049  -23.5851 o0      1  lig      -0.557234
      6 C_05        -15.3028  -19.1965  -26.0227 c6      1  lig      -0.017843
      7 C_06        -15.7965  -20.0495  -25.0297 c7      1  lig      -0.173876
      8 C_07        -15.5658  -21.4095  -25.0956 c8      1  lig      -0.214041
      9 C_08        -14.8063  -21.9515  -26.1302 c9      1  lig       0.023775
     10 C_09        -14.3983  -21.1196  -27.1811 cb      1  lig      -0.150123
     11 C_0a        -14.6397  -19.7519  -27.1232 ci      1  lig      -0.123043
     12 C_0b        -14.3680  -23.4201  -26.0124 cj      1  lig       0.328426
     13 C_0c        -15.1526  -15.5000  -26.5810 ck      1  lig       0.257882
     14 C_0d        -15.8439  -14.9900  -25.4754 cm      1  lig       0.027595
     15 C_0e        -15.9352  -13.6164  -25.2666 cn      1  lig      -0.189561
     16 C_0f        -15.3329  -12.7479  -26.1806 co      1  lig      -0.176229
     17 C_0g        -14.6736  -13.2481  -27.3060 cq      1  lig      -0.130185
     18 C_0h        -14.5950  -14.6270  -27.5156 cr      1  lig      -0.192510
     19 C_0i        -13.4015  -23.7780  -27.1663 cs      1  lig      -0.208620
     20 C_0j        -15.6399  -24.3094  -26.0018 ct      1  lig      -0.312800
     21 C_0k        -13.6628  -23.7212  -24.6935 cw      1  lig      -0.273186
     22 H_0l        -16.6288  -17.9244  -24.2312 h0      1  lig       0.295328
     23 H_0m        -16.3148  -19.6807  -24.1585 h6      1  lig       0.141511
     24 H_0n        -15.9160  -22.0334  -24.2877 h7      1  lig       0.177451
     25 H_0o        -13.8381  -21.4999  -28.0219 h8      1  lig       0.136999
     26 H_0p        -14.2700  -19.1240  -27.9229 h9      1  lig       0.136200
     27 H_0q        -16.4540  -13.2266  -24.4025 hb      1  lig       0.175946
     28 H_0r        -15.3779  -11.6800  -26.0215 hd      1  lig       0.152136
     29 H_0s        -14.2191  -12.5644  -28.0101 he      1  lig       0.157339
     30 H_0t        -14.0707  -15.0162  -28.3762 hf      1  lig       0.141724
     31 H_0u        -12.6996  -22.9672  -27.3675 hg      1  lig       0.050249
     32 H_0v        -13.9402  -23.9935  -28.0868 hh      1  lig       0.050249
     33 H_0w        -12.7933  -24.6547  -26.9473 hi      1  lig       0.050249
     34 H_0x        -16.4310  -23.8550  -25.4054 hj      1  lig       0.074204
     35 H_0y        -15.4994  -25.3013  -25.5827 hk      1  lig       0.074204
     36 H_0z        -16.0260  -24.4398  -27.0037 hl      1  lig       0.074204
     37 H_10        -14.2630  -23.3726  -23.8575 hm      1  lig       0.064341
     38 H_11        -12.6754  -23.2637  -24.6380 hq      1  lig       0.064341
     39 H_12        -13.5382  -24.7984  -24.5916 hr      1  lig       0.064341
@<TRIPOS>BOND
     1     1     2    2
     2     1    13    1
     3     2     3    1
     4     2     6    1
     5     3     4    1
     6     3    22    1
     7     4     5    2
     8     4    14    1
     9     6     7    2
    10     6    11    1
    11     7     8    1
    12     7    23    1
    13     8     9    2
    14     8    24    1
    15     9    10    1
    16     9    12    1
    17    10    11    2
    18    10    25    1
    19    11    26    1
    20    12    19    1
    21    12    20    1
    22    12    21    1
    23    13    14    2
    24    13    18    1
    25    14    15    1
    26    15    16    2
    27    15    27    1
    28    16    17    1
    29    16    28    1
    30    17    18    2
    31    17    29    1
    32    18    30    1
    33    19    31    1
    34    19    32    1
    35    19    33    1
    36    20    34    1
    37    20    35    1
    38    20    36    1
    39    21    37    1
    40    21    38    1
    41    21    39    1
