@<TRIPOS>MOLECULE
lig
  39   41 0 0 0
SMALL
NO_CHARGES


@<TRIPOS>ATOM
      1 C_00        -14.5843  -14.7116  -27.5536 c4      1  lig      -0.247758
      2 C_01        -15.1563  -15.5168  -26.5725 c5      1  lig       0.292828
      3 C_02        -14.6839  -13.3308  -27.4341 c6      1  lig      -0.169437
      4 C_03        -15.8704  -14.9642  -25.5050 c7      1  lig      -0.024770
      5 N_04        -14.9849  -16.8888  -26.6806 n0      1  lig      -0.553390
      6 C_05        -15.3785  -12.7815  -26.3579 c8      1  lig       0.245565
      7 C_06        -15.9898  -13.5830  -25.3915 c9      1  lig      -0.266148
      8 C_07        -16.4951  -15.9110  -24.5008 cb      1  lig       0.522119
      9 N_08        -16.1292  -17.2016  -24.7265 ng      1  lig      -0.394456
     10 O_09        -17.2749  -15.6059  -23.5994 o0      1  lig      -0.557891
     11 C_0a        -15.4369  -17.7151  -25.8030 ci      1  lig       0.475871
     12 C_0b        -15.2562  -19.1608  -25.9636 cj      1  lig      -0.057330
     13 C_0c        -14.5830  -19.6077  -27.1049 ck      1  lig      -0.111052
     14 C_0d        -14.3265  -20.9447  -27.2876 cm      1  lig      -0.150589
     15 C_0e        -14.7480  -21.8824  -26.3421 cn      1  lig       0.018450
     16 C_0f        -15.4530  -21.4469  -25.2145 co      1  lig      -0.197088
     17 C_0g        -15.7105  -20.0928  -25.0243 cq      1  lig      -0.177752
     18 F_0h        -15.4673  -11.4547  -26.2714 f0      1  lig      -0.195468
     19 C_0i        -14.3949  -23.3652  -26.5136 cr      1  lig       0.341222
     20 C_0j        -15.5854  -24.2010  -26.0389 cs      1  lig      -0.323975
     21 C_0k        -13.1695  -23.7636  -25.6881 ct      1  lig      -0.279312
     22 C_0l        -14.0156  -23.6918  -27.9583 cw      1  lig      -0.224764
     23 H_0m        -14.0466  -15.1535  -28.3807 h0      1  lig       0.175310
     24 H_0n        -14.2301  -12.6806  -28.1699 h6      1  lig       0.176996
     25 H_0o        -16.5321  -13.1395  -24.5694 h7      1  lig       0.205789
     26 H_0p        -16.5900  -17.8635  -24.1166 h8      1  lig       0.301278
     27 H_0q        -14.2270  -18.9240  -27.8639 h9      1  lig       0.129668
     28 H_0r        -13.7744  -21.2114  -28.1733 hb      1  lig       0.138887
     29 H_0s        -15.7825  -22.1540  -24.4698 hd      1  lig       0.171239
     30 H_0t        -16.2395  -19.7878  -24.1323 he      1  lig       0.144631
     31 H_0u        -16.4452  -24.1248  -26.7063 hf      1  lig       0.077048
     32 H_0v        -15.9076  -23.8895  -25.0475 hg      1  lig       0.077048
     33 H_0w        -15.2786  -25.2372  -25.9762 hh      1  lig       0.077048
     34 H_0x        -12.3282  -23.1165  -25.9090 hi      1  lig       0.065888
     35 H_0y        -12.7992  -24.7579  -25.8883 hj      1  lig       0.065888
     36 H_0z        -13.3872  -23.7048  -24.6291 hk      1  lig       0.065888
     37 H_10        -13.2997  -22.9543  -28.2921 hl      1  lig       0.054173
     38 H_11        -14.8831  -23.6893  -28.6146 hm      1  lig       0.054173
     39 H_12        -13.5115  -24.6565  -28.0471 hq      1  lig       0.054173
@<TRIPOS>BOND
     1     1     2    2
     2     1     3    1
     3     1    23    1
     4     2     4    1
     5     2     5    1
     6     3     6    2
     7     3    24    1
     8     4     7    2
     9     4     8    1
    10     5    11    2
    11     6     7    1
    12     6    18    1
    13     7    25    1
    14     8     9    1
    15     8    10    2
    16     9    11    1
    17     9    26    1
    18    11    12    1
    19    12    13    2
    20    12    17    1
    21    13    14    1
    22    13    27    1
    23    14    15    2
    24    14    28    1
    25    15    16    1
    26    15    19    1
    27    16    17    2
    28    16    29    1
    29    17    30    1
    30    19    20    1
    31    19    21    1
    32    19    22    1
    33    20    31    1
    34    20    32    1
    35    20    33    1
    36    21    34    1
    37    21    35    1
    38    21    36    1
    39    22    37    1
    40    22    38    1
    41    22    39    1
