@<TRIPOS>MOLECULE
lig
  37   39 0 0 0
SMALL
NO_CHARGES


@<TRIPOS>ATOM
      1 C_00        -14.4887  -14.6549  -27.5068 c4      1  lig      -0.219330
      2 C_01        -15.0784  -15.5105  -26.5765 c5      1  lig       0.309712
      3 C_02        -14.5574  -13.2734  -27.3136 c6      1  lig      -0.123766
      4 C_03        -15.7939  -14.9851  -25.4970 c7      1  lig       0.015237
      5 N_04        -14.9153  -16.8955  -26.7252 n0      1  lig      -0.568775
      6 C_05        -15.2379  -12.7551  -26.2102 c8      1  lig      -0.170851
      7 C_06        -15.8736  -13.6081  -25.3035 c9      1  lig      -0.202322
      8 C_07        -16.4670  -15.9501  -24.5521 cb      1  lig       0.482596
      9 N_08        -16.1428  -17.2389  -24.8228 ng      1  lig      -0.392402
     10 O_09        -17.2507  -15.6565  -23.6551 o0      1  lig      -0.557227
     11 C_0a        -15.4124  -17.7404  -25.8797 ci      1  lig       0.474041
     12 C_0b        -15.2750  -19.2019  -26.0235 cj      1  lig      -0.039559
     13 C_0c        -15.8060  -20.0944  -25.0806 ck      1  lig      -0.187499
     14 C_0d        -15.6365  -21.4652  -25.2376 cm      1  lig      -0.222717
     15 C_0e        -14.9291  -21.9656  -26.3345 cn      1  lig       0.074594
     16 C_0f        -14.4216  -21.0786  -27.2845 co      1  lig      -0.097757
     17 C_0g        -14.5948  -19.7141  -27.1334 cq      1  lig      -0.145784
     18 C_0h        -14.5885  -23.4545  -26.4120 cr      1  lig       0.402709
     19 O_0i        -14.2373  -23.8906  -27.6995 o1      1  lig      -0.711525
     20 C_0j        -15.7670  -24.3817  -26.0807 cs      1  lig      -0.216677
     21 C_0k        -13.3520  -23.6762  -25.5380 ct      1  lig      -0.173093
     22 H_0l        -13.9461  -15.0592  -28.3490 h0      1  lig       0.149602
     23 H_0m        -14.0765  -12.6015  -28.0118 h6      1  lig       0.156020
     24 H_0n        -15.2675  -11.6846  -26.0655 h7      1  lig       0.150205
     25 H_0o        -16.4083  -13.2023  -24.4560 h8      1  lig       0.179826
     26 H_0p        -16.6142  -17.9038  -24.2244 h9      1  lig       0.303314
     27 H_0q        -16.3283  -19.7466  -24.2019 hb      1  lig       0.148070
     28 H_0r        -16.0140  -22.1325  -24.4762 hd      1  lig       0.172629
     29 H_0s        -13.8515  -21.4355  -28.1296 he      1  lig       0.155048
     30 H_0t        -14.1785  -19.0600  -27.8872 hf      1  lig       0.138593
     31 H_0u        -14.0218  -24.8268  -27.6517 hg      1  lig       0.438007
     32 H_0v        -16.6776  -24.0445  -26.5749 hh      1  lig       0.051992
     33 H_0w        -15.9457  -24.4280  -25.0079 hi      1  lig       0.051992
     34 H_0x        -15.5953  -25.4165  -26.3853 hj      1  lig       0.051992
     35 H_0y        -12.5514  -22.9776  -25.7877 hk      1  lig       0.041035
     36 H_0z        -12.9573  -24.6793  -25.6884 hl      1  lig       0.041035
     37 H_10        -13.5749  -23.5582  -24.4761 hm      1  lig       0.041035
@<TRIPOS>BOND
     1     1     2    2
     2     1     3    1
     3     1    22    1
     4     2     4    1
     5     2     5    1
     6     3     6    2
     7     3    23    1
     8     4     7    2
     9     4     8    1
    10     5    11    2
    11     6     7    1
    12     6    24    1
    13     7    25    1
    14     8     9    1
    15     8    10    2
    16     9    11    1
    17     9    26    1
    18    11    12    1
    19    12    13    2
    20    12    17    1
    21    13    14    1
    22    13    27    1
    23    14    15    2
    24    14    28    1
    25    15    16    1
    26    15    18    1
    27    16    17    2
    28    16    29    1
    29    17    30    1
    30    18    19    1
    31    18    20    1
    32    18    21    1
    33    19    31    1
    34    20    32    1
    35    20    33    1
    36    20    34    1
    37    21    35    1
    38    21    36    1
    39    21    37    1
