@<TRIPOS>MOLECULE
lig
  37   39 0 0 0
SMALL
NO_CHARGES


@<TRIPOS>ATOM
      1 C_00        -14.7375  -14.6323  -27.5622 c4      1  lig      -0.193121
      2 C_01        -15.2209  -15.5030  -26.5843 c5      1  lig       0.210882
      3 C_02        -14.8052  -13.2521  -27.3541 c6      1  lig      -0.162883
      4 C_03        -15.8290  -14.9959  -25.4322 c7      1  lig       0.019324
      5 N_04        -15.0637  -16.8857  -26.7646 n0      1  lig      -0.535000
      6 C_05        -15.3769  -12.7497  -26.1825 c8      1  lig      -0.211720
      7 C_06        -15.8955  -13.6216  -25.2220 c9      1  lig       0.158772
      8 C_07        -16.3909  -15.9775  -24.4274 cb      1  lig       0.511088
      9 N_08        -16.0862  -17.2568  -24.7503 ng      1  lig      -0.433448
     10 O_09        -17.0800  -15.7139  -23.4429 o0      1  lig      -0.542042
     11 C_0a        -15.4531  -17.7422  -25.8760 ci      1  lig       0.506657
     12 C_0b        -15.2977  -19.2017  -26.0254 cj      1  lig      -0.054135
     13 C_0c        -14.7218  -19.7203  -27.1921 ck      1  lig      -0.150413
     14 C_0d        -14.5398  -21.0868  -27.3404 cm      1  lig      -0.089992
     15 C_0e        -14.9310  -21.9625  -26.3286 cn      1  lig       0.074997
     16 C_0f        -15.5262  -21.4542  -25.1705 co      1  lig      -0.222379
     17 C_0g        -15.7136  -20.0876  -25.0202 cq      1  lig      -0.179232
     18 C_0h        -14.6142  -23.4546  -26.4203 cr      1  lig       0.397711
     19 O_0i        -14.2412  -23.9050  -27.6919 o1      1  lig      -0.712158
     20 C_0j        -15.8331  -24.3311  -26.1345 cs      1  lig      -0.209005
     21 C_0k        -13.3967  -23.7268  -25.5432 ct      1  lig      -0.175430
     22 F_0l        -16.4397  -13.1379  -24.0896 f0      1  lig      -0.150235
     23 H_0m        -14.2807  -15.0241  -28.4595 h0      1  lig       0.150150
     24 H_0n        -14.4099  -12.5699  -28.0945 h6      1  lig       0.181303
     25 H_0o        -15.4149  -11.6823  -26.0197 h7      1  lig       0.168537
     26 H_0p        -16.4975  -17.9291  -24.1171 h8      1  lig       0.311016
     27 H_0q        -14.3964  -19.0698  -27.9924 h9      1  lig       0.137042
     28 H_0r        -14.0590  -21.4564  -28.2342 hb      1  lig       0.154877
     29 H_0s        -15.8125  -22.1120  -24.3626 hd      1  lig       0.173514
     30 H_0t        -16.1645  -19.7415  -24.1011 he      1  lig       0.147575
     31 H_0u        -14.0527  -24.8497  -27.6378 hf      1  lig       0.439159
     32 H_0v        -16.7037  -23.9737  -26.6848 hg      1  lig       0.050770
     33 H_0w        -16.0714  -24.3463  -25.0730 hh      1  lig       0.050770
     34 H_0x        -15.6834  -25.3773  -26.4099 hi      1  lig       0.050770
     35 H_0y        -12.5749  -23.0602  -25.7999 hj      1  lig       0.042093
     36 H_0z        -13.0449  -24.7489  -25.6799 hk      1  lig       0.042093
     37 H_10        -13.6168  -23.5810  -24.4847 hl      1  lig       0.042093
@<TRIPOS>BOND
     1     1     2    2
     2     1     3    1
     3     1    23    1
     4     2     4    1
     5     2     5    1
     6     3     6    2
     7     3    24    1
     8     4     7    2
     9     4     8    1
    10     5    11    2
    11     6     7    1
    12     6    25    1
    13     7    22    1
    14     8     9    1
    15     8    10    2
    16     9    11    1
    17     9    26    1
    18    11    12    1
    19    12    13    2
    20    12    17    1
    21    13    14    1
    22    13    27    1
    23    14    15    2
    24    14    28    1
    25    15    16    1
    26    15    18    1
    27    16    17    2
    28    16    29    1
    29    17    30    1
    30    18    19    1
    31    18    20    1
    32    18    21    1
    33    19    31    1
    34    20    32    1
    35    20    33    1
    36    20    34    1
    37    21    35    1
    38    21    36    1
    39    21    37    1
