@<TRIPOS>MOLECULE
lig
  37   39 0 0 0
SMALL
NO_CHARGES


@<TRIPOS>ATOM
      1 C_00        -14.6402  -14.6836  -27.5547 c4      1  lig      -0.208671
      2 C_01        -15.1755  -15.5552  -26.6036 c5      1  lig       0.232915
      3 C_02        -14.7438  -13.3055  -27.3562 c6      1  lig      -0.130660
      4 C_03        -15.8696  -15.0613  -25.4918 c7      1  lig       0.127966
      5 N_04        -14.9688  -16.9303  -26.7569 n0      1  lig      -0.542680
      6 C_05        -15.3733  -12.8094  -26.2126 c8      1  lig      -0.108538
      7 C_06        -15.9336  -13.6874  -25.2804 c9      1  lig      -0.113005
      8 C_07        -16.5077  -16.0631  -24.5388 cb      1  lig       0.474487
      9 N_08        -16.1797  -17.3276  -24.8519 ng      1  lig      -0.414949
     10 O_09        -17.2756  -15.8537  -23.5980 o0      1  lig      -0.525717
     11 C_0a        -15.4325  -17.7880  -25.9083 ci      1  lig       0.474024
     12 C_0b        -15.2347  -19.2298  -26.0215 cj      1  lig      -0.034860
     13 C_0c        -14.5685  -19.7364  -27.1395 ck      1  lig      -0.149668
     14 C_0d        -14.3729  -21.0966  -27.2695 cm      1  lig      -0.095694
     15 C_0e        -14.8512  -21.9648  -26.2915 cn      1  lig       0.077187
     16 C_0f        -15.5073  -21.4630  -25.1657 co      1  lig      -0.226381
     17 C_0g        -15.7070  -20.1036  -25.0334 cq      1  lig      -0.181929
     18 C_0h        -14.5890  -23.4530  -26.4105 cr      1  lig       0.395448
     19 O_0i        -14.2420  -23.8777  -27.6930 o1      1  lig      -0.711152
     20 C_0j        -15.8426  -24.2713  -26.2211 cs      1  lig      -0.205821
     21 C_0k        -13.4461  -23.8224  -25.4773 ct      1  lig      -0.174318
     22 Cl0l        -16.6478  -13.0758  -23.8537 a0      1  lig      -0.057973
     23 H_0m        -14.1211  -15.0714  -28.4191 h0      1  lig       0.154638
     24 H_0n        -14.3123  -12.6194  -28.0725 h6      1  lig       0.165621
     25 H_0o        -15.4161  -11.7422  -26.0453 h7      1  lig       0.138520
     26 H_0p        -16.6484  -18.0051  -24.2667 h8      1  lig       0.307546
     27 H_0q        -14.1921  -19.0860  -27.9170 h9      1  lig       0.138310
     28 H_0r        -13.8366  -21.4662  -28.1300 hb      1  lig       0.156011
     29 H_0s        -15.8567  -22.1134  -24.3782 hd      1  lig       0.175029
     30 H_0t        -16.2216  -19.7579  -24.1478 he      1  lig       0.149105
     31 H_0u        -14.1117  -24.8317  -27.6615 hf      1  lig       0.438846
     32 H_0v        -16.6408  -23.8913  -26.8628 hg      1  lig       0.050190
     33 H_0w        -16.1710  -24.2634  -25.1835 hh      1  lig       0.050190
     34 H_0x        -15.7129  -25.3281  -26.4654 hi      1  lig       0.050190
     35 H_0y        -12.6022  -23.1441  -25.5977 hj      1  lig       0.041931
     36 H_0z        -13.0927  -24.8196  -25.7118 hk      1  lig       0.041931
     37 H_10        -13.7424  -23.7925  -24.4280 hl      1  lig       0.041931
@<TRIPOS>BOND
     1     1     2    2
     2     1     3    1
     3     1    23    1
     4     2     4    1
     5     2     5    1
     6     3     6    2
     7     3    24    1
     8     4     7    2
     9     4     8    1
    10     5    11    2
    11     6     7    1
    12     6    25    1
    13     7    22    1
    14     8     9    1
    15     8    10    2
    16     9    11    1
    17     9    26    1
    18    11    12    1
    19    12    13    2
    20    12    17    1
    21    13    14    1
    22    13    27    1
    23    14    15    2
    24    14    28    1
    25    15    16    1
    26    15    18    1
    27    16    17    2
    28    16    29    1
    29    17    30    1
    30    18    19    1
    31    18    20    1
    32    18    21    1
    33    19    31    1
    34    20    32    1
    35    20    33    1
    36    20    34    1
    37    21    35    1
    38    21    36    1
    39    21    37    1
