@<TRIPOS>MOLECULE
lig
  37   39 0 0 0
SMALL
NO_CHARGES


@<TRIPOS>ATOM
      1 C_00        -14.3086  -14.7921  -27.4784 c4      1  lig      -0.224744
      2 C_01        -15.0167  -15.5896  -26.5804 c5      1  lig       0.276554
      3 C_02        -14.4209  -13.4086  -27.3834 c6      1  lig      -0.180228
      4 C_03        -15.8598  -15.0204  -25.6172 c7      1  lig      -0.030352
      5 N_04        -14.8572  -16.9685  -26.6643 n0      1  lig      -0.549452
      6 C_05        -15.2467  -12.8486  -26.4112 c8      1  lig       0.242744
      7 C_06        -15.9778  -13.6371  -25.5261 c9      1  lig      -0.257658
      8 F_07        -15.3497  -11.5222  -26.3368 f0      1  lig      -0.193643
      9 C_08        -16.6344  -15.9439  -24.7010 cb      1  lig       0.534093
     10 N_09        -16.3378  -17.2491  -24.9375 ng      1  lig      -0.408002
     11 O_0a        -17.4603  -15.6053  -23.8520 o0      1  lig      -0.560082
     12 C_0b        -15.4812  -17.7825  -25.8835 ci      1  lig       0.480548
     13 C_0c        -15.3281  -19.2368  -26.0128 cj      1  lig      -0.046181
     14 C_0d        -15.7173  -20.1149  -24.9948 ck      1  lig      -0.182795
     15 C_0e        -15.5045  -21.4792  -25.1435 cm      1  lig      -0.220749
     16 C_0f        -14.9173  -21.9782  -26.3122 cn      1  lig       0.075489
     17 C_0g        -14.5597  -21.1078  -27.3352 co      1  lig      -0.090117
     18 C_0h        -14.7654  -19.7512  -27.1884 cq      1  lig      -0.149124
     19 C_0i        -14.5723  -23.4575  -26.4180 cr      1  lig       0.380557
     20 O_0j        -14.2296  -23.8957  -27.7059 o1      1  lig      -0.709418
     21 C_0k        -15.7738  -24.3383  -26.1013 cs      1  lig      -0.205724
     22 C_0l        -13.3357  -23.7020  -25.5598 ct      1  lig      -0.181385
     23 H_0m        -13.6666  -15.2372  -28.2250 h0      1  lig       0.170463
     24 H_0n        -13.8693  -12.7659  -28.0555 h6      1  lig       0.179060
     25 H_0o        -16.6179  -13.1711  -24.7897 h7      1  lig       0.202530
     26 H_0p        -16.8986  -17.8932  -24.3961 h8      1  lig       0.304632
     27 H_0q        -16.1594  -19.7615  -24.0734 h9      1  lig       0.146722
     28 H_0r        -15.7659  -22.1386  -24.3295 hb      1  lig       0.173603
     29 H_0s        -14.0863  -21.4707  -28.2353 hd      1  lig       0.156137
     30 H_0t        -14.4611  -19.1052  -28.0006 he      1  lig       0.136423
     31 H_0u        -14.0254  -24.8372  -27.6632 hf      1  lig       0.441143
     32 H_0v        -16.6686  -23.9680  -26.6026 hg      1  lig       0.051189
     33 H_0w        -15.9590  -24.3559  -25.0291 hh      1  lig       0.051189
     34 H_0x        -15.6385  -25.3819  -26.3933 hi      1  lig       0.051189
     35 H_0y        -12.5229  -23.0398  -25.8496 hj      1  lig       0.045130
     36 H_0z        -12.9848  -24.7235  -25.6730 hk      1  lig       0.045130
     37 H_10        -13.5341  -23.5351  -24.4994 hl      1  lig       0.045129
@<TRIPOS>BOND
     1     1     2    2
     2     1     3    1
     3     1    23    1
     4     2     4    1
     5     2     5    1
     6     3     6    2
     7     3    24    1
     8     4     7    2
     9     4     9    1
    10     5    12    2
    11     6     7    1
    12     6     8    1
    13     7    25    1
    14     9    10    1
    15     9    11    2
    16    10    12    1
    17    10    26    1
    18    12    13    1
    19    13    14    2
    20    13    18    1
    21    14    15    1
    22    14    27    1
    23    15    16    2
    24    15    28    1
    25    16    17    1
    26    16    19    1
    27    17    18    2
    28    17    29    1
    29    18    30    1
    30    19    20    1
    31    19    21    1
    32    19    22    1
    33    20    31    1
    34    21    32    1
    35    21    33    1
    36    21    34    1
    37    22    35    1
    38    22    36    1
    39    22    37    1
