@<TRIPOS>MOLECULE
lig
  37   39 0 0 0
SMALL
NO_CHARGES


@<TRIPOS>ATOM
      1 C_00        -14.6145  -14.8753  -27.6783 c4      1  lig      -0.248896
      2 C_01        -15.1464  -15.6452  -26.6477 c5      1  lig       0.299131
      3 C_02        -14.7773  -13.4982  -27.6334 c6      1  lig      -0.059686
      4 C_03        -15.8626  -15.0639  -25.5930 c7      1  lig      -0.018594
      5 N_04        -14.9335  -17.0116  -26.6934 n0      1  lig      -0.550972
      6 C_05        -15.4592  -12.9286  -26.5614 c8      1  lig      -0.036020
      7 C_06        -16.0212  -13.6877  -25.5413 c9      1  lig      -0.114402
      8 C_07        -16.4561  -15.9663  -24.5344 cb      1  lig       0.473852
      9 N_08        -16.1772  -17.2727  -24.7852 ng      1  lig      -0.373070
     10 O_09        -17.1375  -15.6099  -23.5713 o0      1  lig      -0.543842
     11 C_0a        -15.4463  -17.8122  -25.8274 ci      1  lig       0.477002
     12 C_0b        -15.3013  -19.2577  -25.9685 cj      1  lig      -0.052814
     13 C_0c        -15.7883  -20.1437  -25.0032 ck      1  lig      -0.184338
     14 C_0d        -15.5853  -21.5050  -25.1666 cm      1  lig      -0.219195
     15 C_0e        -14.9212  -21.9889  -26.3002 cn      1  lig       0.075924
     16 C_0f        -14.4497  -21.1036  -27.2603 co      1  lig      -0.093394
     17 C_0g        -14.6471  -19.7514  -27.1044 cq      1  lig      -0.142791
     18 C_0h        -14.5675  -23.4595  -26.4211 cr      1  lig       0.396783
     19 O_0i        -14.2543  -23.8948  -27.7188 o1      1  lig      -0.711226
     20 Cl0j        -15.5911  -11.2537  -26.4871 a0      1  lig      -0.113214
     21 C_0k        -15.7371  -24.3734  -26.1449 cs      1  lig      -0.218293
     22 C_0l        -13.3528  -23.6876  -25.5352 ct      1  lig      -0.176551
     23 H_0m        -14.0725  -15.3349  -28.4916 h0      1  lig       0.165416
     24 H_0n        -14.3582  -12.8718  -28.4085 h6      1  lig       0.156538
     25 H_0o        -16.5533  -13.2093  -24.7301 h7      1  lig       0.172092
     26 H_0p        -16.6582  -17.9076  -24.1598 h8      1  lig       0.299076
     27 H_0q        -16.2939  -19.7994  -24.1117 h9      1  lig       0.148090
     28 H_0r        -15.9101  -22.1690  -24.3811 hb      1  lig       0.172769
     29 H_0s        -13.8986  -21.4549  -28.1189 hd      1  lig       0.155710
     30 H_0t        -14.2620  -19.0974  -27.8744 he      1  lig       0.136129
     31 H_0u        -14.0506  -24.8357  -27.6678 hf      1  lig       0.439673
     32 H_0v        -16.5721  -24.0859  -26.7829 hg      1  lig       0.053477
     33 H_0w        -16.0738  -24.2984  -25.1148 hh      1  lig       0.053477
     34 H_0x        -15.5257  -25.4267  -26.3342 hi      1  lig       0.053477
     35 H_0y        -12.5483  -22.9937  -25.7771 hj      1  lig       0.042894
     36 H_0z        -12.9750  -24.6916  -25.6788 hk      1  lig       0.042894
     37 H_10        -13.5852  -23.5615  -24.4766 hl      1  lig       0.042894
@<TRIPOS>BOND
     1     1     2    2
     2     1     3    1
     3     1    23    1
     4     2     4    1
     5     2     5    1
     6     3     6    2
     7     3    24    1
     8     4     7    2
     9     4     8    1
    10     5    11    2
    11     6     7    1
    12     6    20    1
    13     7    25    1
    14     8     9    1
    15     8    10    2
    16     9    11    1
    17     9    26    1
    18    11    12    1
    19    12    13    2
    20    12    17    1
    21    13    14    1
    22    13    27    1
    23    14    15    2
    24    14    28    1
    25    15    16    1
    26    15    18    1
    27    16    17    2
    28    16    29    1
    29    17    30    1
    30    18    19    1
    31    18    21    1
    32    18    22    1
    33    19    31    1
    34    21    32    1
    35    21    33    1
    36    21    34    1
    37    22    35    1
    38    22    36    1
    39    22    37    1
