@<TRIPOS>MOLECULE
lig
  37   39 0 0 0
SMALL
NO_CHARGES


@<TRIPOS>ATOM
      1 C_00        -14.5642  -14.6384  -27.5273 c4      1  lig       0.187671
      2 C_01        -15.1482  -15.5111  -26.6015 c5      1  lig       0.253376
      3 C_02        -14.6521  -13.2595  -27.3238 c6      1  lig      -0.179170
      4 C_03        -15.8827  -14.9938  -25.5273 c7      1  lig      -0.037799
      5 N_04        -14.9607  -16.8981  -26.7338 n0      1  lig      -0.509516
      6 C_05        -15.3427  -12.7540  -26.2229 c8      1  lig      -0.203056
      7 C_06        -15.9780  -13.6190  -25.3283 c9      1  lig      -0.209530
      8 C_07        -16.5556  -15.9641  -24.5881 cb      1  lig       0.528209
      9 N_08        -16.1974  -17.2475  -24.8411 ng      1  lig      -0.387668
     10 O_09        -17.3643  -15.6757  -23.7122 o0      1  lig      -0.561144
     11 C_0a        -15.4538  -17.7454  -25.8883 ci      1  lig       0.435843
     12 C_0b        -15.2992  -19.2055  -26.0279 cj      1  lig      -0.033754
     13 C_0c        -15.8269  -20.1007  -25.0850 ck      1  lig      -0.187379
     14 C_0d        -15.6451  -21.4700  -25.2387 cm      1  lig      -0.222084
     15 C_0e        -14.9295  -21.9653  -26.3318 cn      1  lig       0.074591
     16 C_0f        -14.4231  -21.0764  -27.2810 co      1  lig      -0.095320
     17 C_0g        -14.6078  -19.7133  -27.1328 cq      1  lig      -0.139944
     18 C_0h        -14.5764  -23.4515  -26.4059 cr      1  lig       0.389778
     19 O_0i        -14.2382  -23.8893  -27.6950 o1      1  lig      -0.710668
     20 C_0j        -15.7378  -24.3889  -26.0561 cs      1  lig      -0.204339
     21 C_0k        -13.3308  -23.6575  -25.5430 ct      1  lig      -0.178307
     22 F_0l        -13.8633  -15.1104  -28.5859 f0      1  lig      -0.191486
     23 H_0m        -14.1704  -12.5789  -28.0136 h0      1  lig       0.177659
     24 H_0n        -15.3804  -11.6856  -26.0675 h6      1  lig       0.176035
     25 H_0o        -16.5260  -13.2239  -24.4843 h7      1  lig       0.190804
     26 H_0p        -16.6798  -17.9151  -24.2551 h8      1  lig       0.301062
     27 H_0q        -16.3566  -19.7562  -24.2096 h9      1  lig       0.149550
     28 H_0r        -16.0208  -22.1393  -24.4788 hb      1  lig       0.172443
     29 H_0s        -13.8443  -21.4300  -28.1202 hd      1  lig       0.157719
     30 H_0t        -14.1924  -19.0573  -27.8847 he      1  lig       0.135886
     31 H_0u        -14.0150  -24.8240  -27.6454 hf      1  lig       0.440233
     32 H_0v        -16.6699  -24.0548  -26.5050 hg      1  lig       0.049962
     33 H_0w        -15.8750  -24.4385  -24.9779 hh      1  lig       0.049962
     34 H_0x        -15.5735  -25.4220  -26.3718 hi      1  lig       0.049962
     35 H_0y        -12.5376  -22.9611  -25.8134 hj      1  lig       0.043473
     36 H_0z        -12.9378  -24.6629  -25.6817 hk      1  lig       0.043473
     37 H_10        -13.5408  -23.5212  -24.4800 hl      1  lig       0.043473
@<TRIPOS>BOND
     1     1     2    2
     2     1     3    1
     3     1    22    1
     4     2     4    1
     5     2     5    1
     6     3     6    2
     7     3    23    1
     8     4     7    2
     9     4     8    1
    10     5    11    2
    11     6     7    1
    12     6    24    1
    13     7    25    1
    14     8     9    1
    15     8    10    2
    16     9    11    1
    17     9    26    1
    18    11    12    1
    19    12    13    2
    20    12    17    1
    21    13    14    1
    22    13    27    1
    23    14    15    2
    24    14    28    1
    25    15    16    1
    26    15    18    1
    27    16    17    2
    28    16    29    1
    29    17    30    1
    30    18    19    1
    31    18    20    1
    32    18    21    1
    33    19    31    1
    34    20    32    1
    35    20    33    1
    36    20    34    1
    37    21    35    1
    38    21    36    1
    39    21    37    1
