@<TRIPOS>MOLECULE
lig
  37   39 0 0 0
SMALL
NO_CHARGES


@<TRIPOS>ATOM
      1 C_00        -14.5341  -14.6449  -27.5575 c4      1  lig      -0.098068
      2 C_01        -15.0978  -15.5129  -26.6098 c5      1  lig       0.359751
      3 C_02        -14.6077  -13.2658  -27.3516 c6      1  lig      -0.055358
      4 C_03        -15.7922  -14.9870  -25.5133 c7      1  lig      -0.023289
      5 N_04        -14.9372  -16.9036  -26.7424 n0      1  lig      -0.503774
      6 C_05        -15.2582  -12.7538  -26.2292 c8      1  lig      -0.198196
      7 C_06        -15.8700  -13.6113  -25.3131 c9      1  lig      -0.195710
      8 C_07        -16.4499  -15.9479  -24.5524 cb      1  lig       0.485762
      9 N_08        -16.1281  -17.2371  -24.8190 ng      1  lig      -0.357022
     10 O_09        -17.2230  -15.6491  -23.6483 o0      1  lig      -0.551967
     11 C_0a        -15.4171  -17.7439  -25.8846 ci      1  lig       0.395164
     12 C_0b        -15.2774  -19.2043  -26.0251 cj      1  lig      -0.015666
     13 C_0c        -14.6087  -19.7171  -27.1419 ck      1  lig      -0.141981
     14 C_0d        -14.4337  -21.0811  -27.2917 cm      1  lig      -0.097458
     15 C_0e        -14.9292  -21.9658  -26.3338 cn      1  lig       0.074887
     16 C_0f        -15.6249  -21.4650  -25.2296 co      1  lig      -0.222955
     17 C_0g        -15.7964  -20.0948  -25.0737 cq      1  lig      -0.189711
     18 C_0h        -14.5885  -23.4535  -26.4129 cr      1  lig       0.382404
     19 O_0i        -14.2371  -23.8914  -27.6993 o1      1  lig      -0.710501
     20 C_0j        -15.7678  -24.3783  -26.0824 cs      1  lig      -0.199728
     21 C_0k        -13.3532  -23.6779  -25.5405 ct      1  lig      -0.175374
     22 Cl0l        -13.7154  -15.2314  -28.9661 a0      1  lig      -0.106554
     23 H_0m        -14.1531  -12.5859  -28.0597 h0      1  lig       0.150246
     24 H_0n        -15.2871  -11.6840  -26.0800 h6      1  lig       0.163545
     25 H_0o        -16.3869  -13.2090  -24.4531 h7      1  lig       0.190302
     26 H_0p        -16.5942  -17.8981  -24.2121 h8      1  lig       0.299174
     27 H_0q        -14.2015  -19.0645  -27.9021 h9      1  lig       0.136912
     28 H_0r        -13.8728  -21.4398  -28.1422 hb      1  lig       0.161608
     29 H_0s        -15.9928  -22.1311  -24.4624 hd      1  lig       0.173611
     30 H_0t        -16.3100  -19.7464  -24.1901 he      1  lig       0.150367
     31 H_0u        -14.0256  -24.8281  -27.6507 hf      1  lig       0.441521
     32 H_0v        -16.6748  -24.0465  -26.5885 hg      1  lig       0.049318
     33 H_0w        -15.9524  -24.4080  -25.0103 hh      1  lig       0.049318
     34 H_0x        -15.5930  -25.4162  -26.3733 hi      1  lig       0.049318
     35 H_0y        -12.5499  -22.9849  -25.7929 hj      1  lig       0.043368
     36 H_0z        -12.9687  -24.6845  -25.6920 hk      1  lig       0.043368
     37 H_10        -13.5732  -23.5575  -24.4788 hl      1  lig       0.043368
@<TRIPOS>BOND
     1     1     2    2
     2     1     3    1
     3     1    22    1
     4     2     4    1
     5     2     5    1
     6     3     6    2
     7     3    23    1
     8     4     7    2
     9     4     8    1
    10     5    11    2
    11     6     7    1
    12     6    24    1
    13     7    25    1
    14     8     9    1
    15     8    10    2
    16     9    11    1
    17     9    26    1
    18    11    12    1
    19    12    13    2
    20    12    17    1
    21    13    14    1
    22    13    27    1
    23    14    15    2
    24    14    28    1
    25    15    16    1
    26    15    18    1
    27    16    17    2
    28    16    29    1
    29    17    30    1
    30    18    19    1
    31    18    20    1
    32    18    21    1
    33    19    31    1
    34    20    32    1
    35    20    33    1
    36    20    34    1
    37    21    35    1
    38    21    36    1
    39    21    37    1
