@<TRIPOS>MOLECULE
lig
  41   43 0 0 0
SMALL
NO_CHARGES


@<TRIPOS>ATOM
      1 C_00        -14.6321  -14.6131  -27.5789 c4      1  lig       0.241076
      2 C_01        -15.1582  -15.4760  -26.5985 c5      1  lig       0.232291
      3 C_02        -14.7198  -13.2263  -27.3566 c6      1  lig      -0.199945
      4 C_03        -15.8099  -14.9532  -25.4732 c7      1  lig      -0.035159
      5 N_04        -15.0163  -16.8727  -26.7418 n0      1  lig      -0.560097
      6 C_05        -15.3338  -12.7191  -26.2121 c8      1  lig      -0.218280
      7 C_06        -15.8975  -13.5773  -25.2707 c9      1  lig      -0.235672
      8 C_07        -16.4124  -15.9145  -24.4748 cb      1  lig       0.560249
      9 N_08        -16.0704  -17.2031  -24.7417 ng      1  lig      -0.440166
     10 O_09        -17.1581  -15.6132  -23.5452 o0      1  lig      -0.574682
     11 C_0a        -15.4259  -17.7159  -25.8489 ci      1  lig       0.511608
     12 C_0b        -15.2670  -19.1828  -25.9921 cj      1  lig      -0.056888
     13 C_0c        -14.6478  -19.7009  -27.1380 ck      1  lig      -0.116529
     14 C_0d        -14.4645  -21.0679  -27.2901 cm      1  lig      -0.102599
     15 C_0e        -14.8926  -21.9587  -26.3028 cn      1  lig       0.063251
     16 C_0f        -15.5322  -21.4499  -25.1653 co      1  lig      -0.210117
     17 C_0g        -15.7215  -20.0777  -25.0122 cq      1  lig      -0.199313
     18 C_0h        -14.5807  -23.4613  -26.4256 cr      1  lig       0.395340
     19 O_0i        -14.2589  -23.8828  -27.7351 o1      1  lig      -0.710540
     20 C_0j        -15.7774  -24.3541  -26.0965 cs      1  lig      -0.193961
     21 C_0k        -13.3649  -23.7811  -25.5544 ct      1  lig      -0.160908
     22 O_0l        -14.0089  -15.1610  -28.6904 o2      1  lig      -0.312816
     23 C_0m        -13.4790  -14.2957  -29.6929 cw      1  lig      -0.019292
     24 H_0n        -14.3038  -12.5168  -28.0559 h0      1  lig       0.153341
     25 H_0o        -15.3670  -11.6496  -26.0662 h6      1  lig       0.179200
     26 H_0p        -16.3822  -13.1806  -24.3897 h7      1  lig       0.191225
     27 H_0q        -16.5117  -17.8636  -24.1170 h8      1  lig       0.308646
     28 H_0r        -14.2910  -19.0470  -27.9228 h9      1  lig       0.123717
     29 H_0s        -13.9561  -21.4294  -28.1721 hb      1  lig       0.158279
     30 H_0t        -15.8610  -22.1093  -24.3753 hd      1  lig       0.168994
     31 H_0u        -16.2079  -19.7296  -24.1121 he      1  lig       0.152485
     32 H_0v        -14.0757  -24.8295  -27.7157 hf      1  lig       0.438267
     33 H_0w        -16.6353  -24.0351  -26.6807 hg      1  lig       0.045623
     34 H_0x        -16.0154  -24.3110  -25.0354 hh      1  lig       0.045623
     35 H_0y        -15.6023  -25.4031  -26.3485 hi      1  lig       0.045623
     36 H_0z        -12.4970  -23.2035  -25.8704 hj      1  lig       0.037485
     37 H_10        -13.1139  -24.8310  -25.6259 hk      1  lig       0.037485
     38 H_11        -13.5469  -23.5576  -24.5025 hl      1  lig       0.037484
     39 H_12        -13.0965  -14.8894  -30.5215 hm      1  lig       0.073224
     40 H_13        -12.6505  -13.6919  -29.3183 hq      1  lig       0.073224
     41 H_14        -14.2476  -13.6342  -30.0951 hr      1  lig       0.073224
@<TRIPOS>BOND
     1     1     2    2
     2     1     3    1
     3     1    22    1
     4     2     4    1
     5     2     5    1
     6     3     6    2
     7     3    24    1
     8     4     7    2
     9     4     8    1
    10     5    11    2
    11     6     7    1
    12     6    25    1
    13     7    26    1
    14     8     9    1
    15     8    10    2
    16     9    11    1
    17     9    27    1
    18    11    12    1
    19    12    13    2
    20    12    17    1
    21    13    14    1
    22    13    28    1
    23    14    15    2
    24    14    29    1
    25    15    16    1
    26    15    18    1
    27    16    17    2
    28    16    30    1
    29    17    31    1
    30    18    19    1
    31    18    20    1
    32    18    21    1
    33    19    32    1
    34    20    33    1
    35    20    34    1
    36    20    35    1
    37    21    36    1
    38    21    37    1
    39    21    38    1
    40    22    23    1
    41    23    39    1
    42    23    40    1
    43    23    41    1
