@<TRIPOS>MOLECULE
lig
  40   42 0 0 0
SMALL
NO_CHARGES


@<TRIPOS>ATOM
      1 C_00        -14.6297  -14.6110  -27.5812 c4      1  lig       0.034309
      2 C_01        -15.1557  -15.4829  -26.6107 c5      1  lig       0.200339
      3 C_02        -14.7061  -13.2297  -27.3681 c6      1  lig      -0.186120
      4 C_03        -15.8175  -14.9591  -25.4923 c7      1  lig      -0.003734
      5 N_04        -14.9969  -16.8771  -26.7477 n0      1  lig      -0.415457
      6 C_05        -15.3270  -12.7227  -26.2281 c8      1  lig      -0.187885
      7 C_06        -15.9055  -13.5829  -25.2945 c9      1  lig      -0.204738
      8 C_07        -16.4244  -15.9205  -24.4984 cb      1  lig       0.483996
      9 N_08        -16.0725  -17.2059  -24.7576 ng      1  lig      -0.320890
     10 O_09        -17.1821  -15.6197  -23.5774 o0      1  lig      -0.561733
     11 C_0a        -15.4152  -17.7178  -25.8578 ci      1  lig       0.330493
     12 C_0b        -15.2565  -19.1843  -25.9941 cj      1  lig      -0.018239
     13 C_0c        -14.6319  -19.7039  -27.1360 ck      1  lig      -0.156229
     14 C_0d        -14.4496  -21.0707  -27.2868 cm      1  lig      -0.091082
     15 C_0e        -14.8843  -21.9604  -26.3031 cn      1  lig       0.073596
     16 C_0f        -15.5283  -21.4500  -25.1676 co      1  lig      -0.242332
     17 C_0g        -15.7167  -20.0783  -25.0163 cq      1  lig      -0.159881
     18 C_0h        -14.5831  -23.4642  -26.4242 cr      1  lig       0.401016
     19 O_0i        -14.2264  -23.8803  -27.7268 o1      1  lig      -0.715262
     20 C_0j        -15.8049  -24.3384  -26.1355 cs      1  lig      -0.200824
     21 C_0k        -13.4007  -23.8019  -25.5129 ct      1  lig      -0.178785
     22 C_0l        -13.9366  -15.1262  -28.8376 cw      1  lig      -0.162039
     23 H_0m        -14.2766  -12.5394  -28.0816 h0      1  lig       0.162221
     24 H_0n        -15.3596  -11.6517  -26.0808 h6      1  lig       0.159834
     25 H_0o        -16.4005  -13.1831  -24.4207 h7      1  lig       0.183251
     26 H_0p        -16.5043  -17.8684  -24.1280 h8      1  lig       0.288153
     27 H_0q        -14.2723  -19.0519  -27.9195 h9      1  lig       0.131592
     28 H_0r        -13.9353  -21.4333  -28.1648 hb      1  lig       0.156388
     29 H_0s        -15.8641  -22.1087  -24.3790 hd      1  lig       0.176776
     30 H_0t        -16.2078  -19.7294  -24.1199 he      1  lig       0.141717
     31 H_0u        -14.0472  -24.8289  -27.7070 hf      1  lig       0.440033
     32 H_0v        -16.6360  -24.0017  -26.7470 hg      1  lig       0.048437
     33 H_0w        -16.0765  -24.2907  -25.0828 hh      1  lig       0.048437
     34 H_0x        -15.6404  -25.3866  -26.3851 hi      1  lig       0.048437
     35 H_0y        -12.5084  -23.2486  -25.8057 hj      1  lig       0.042555
     36 H_0z        -13.1740  -24.8577  -25.5627 hk      1  lig       0.042555
     37 H_10        -13.6102  -23.5638  -24.4695 hl      1  lig       0.042555
     38 H_11        -13.7369  -14.3270  -29.5522 hm      1  lig       0.056180
     39 H_12        -14.5474  -15.8740  -29.3431 hq      1  lig       0.056180
     40 H_13        -12.9894  -15.5908  -28.5755 hr      1  lig       0.056180
@<TRIPOS>BOND
     1     1     2    2
     2     1     3    1
     3     1    22    1
     4     2     4    1
     5     2     5    1
     6     3     6    2
     7     3    23    1
     8     4     7    2
     9     4     8    1
    10     5    11    2
    11     6     7    1
    12     6    24    1
    13     7    25    1
    14     8     9    1
    15     8    10    2
    16     9    11    1
    17     9    26    1
    18    11    12    1
    19    12    13    2
    20    12    17    1
    21    13    14    1
    22    13    27    1
    23    14    15    2
    24    14    28    1
    25    15    16    1
    26    15    18    1
    27    16    17    2
    28    16    29    1
    29    17    30    1
    30    18    19    1
    31    18    20    1
    32    18    21    1
    33    19    31    1
    34    20    32    1
    35    20    33    1
    36    20    34    1
    37    21    35    1
    38    21    36    1
    39    21    37    1
    40    22    38    1
    41    22    39    1
    42    22    40    1
