@<TRIPOS>MOLECULE
lig
  37   39 0 0 0
SMALL
NO_CHARGES


@<TRIPOS>ATOM
      1 C_00        -14.7191  -14.7437  -27.6392 c4      1  lig      -0.203360
      2 C_01        -15.2100  -15.5576  -26.6217 c5      1  lig       0.187354
      3 C_02        -14.8546  -13.3638  -27.5278 c6      1  lig      -0.235073
      4 C_03        -15.8634  -15.0119  -25.5100 c7      1  lig      -0.041780
      5 N_04        -15.0155  -16.9311  -26.7330 n0      1  lig      -0.524163
      6 C_05        -15.4818  -12.8157  -26.4108 c8      1  lig       0.216029
      7 C_06        -15.9953  -13.6326  -25.3960 c9      1  lig       0.122157
      8 C_07        -16.4010  -15.9560  -24.4529 cb      1  lig       0.559847
      9 N_08        -16.1237  -17.2489  -24.7503 ng      1  lig      -0.447203
     10 O_09        -17.0404  -15.6548  -23.4436 o0      1  lig      -0.546951
     11 C_0a        -15.4465  -17.7571  -25.8425 ci      1  lig       0.535571
     12 C_0b        -15.2799  -19.2057  -25.9856 cj      1  lig      -0.082212
     13 C_0c        -15.7256  -20.0944  -24.9990 ck      1  lig      -0.170781
     14 C_0d        -15.5412  -21.4568  -25.1662 cm      1  lig      -0.218653
     15 C_0e        -14.9164  -21.9424  -26.3174 cn      1  lig       0.074038
     16 C_0f        -14.4855  -21.0603  -27.3040 co      1  lig      -0.083432
     17 C_0g        -14.6633  -19.7033  -27.1404 cq      1  lig      -0.145259
     18 C_0h        -14.5856  -23.4201  -26.4266 cr      1  lig       0.391604
     19 O_0i        -14.2271  -23.8386  -27.7106 o1      1  lig      -0.711899
     20 F_0j        -15.5915  -11.4816  -26.3335 f0      1  lig      -0.181372
     21 F_0k        -16.6030  -13.1004  -24.3145 f1      1  lig      -0.129481
     22 C_0l        -15.7860  -24.3161  -26.1231 cs      1  lig      -0.207746
     23 C_0m        -13.3500  -23.6601  -25.5696 ct      1  lig      -0.177651
     24 H_0n        -14.2230  -15.1759  -28.4962 h0      1  lig       0.173515
     25 H_0o        -14.4673  -12.7104  -28.2984 h6      1  lig       0.207204
     26 H_0p        -16.5489  -17.9042  -24.1082 h7      1  lig       0.310795
     27 H_0q        -16.1937  -19.7543  -24.0872 h8      1  lig       0.145388
     28 H_0r        -15.8509  -22.1245  -24.3761 h9      1  lig       0.172872
     29 H_0s        -13.9755  -21.4159  -28.1877 hb      1  lig       0.154404
     30 H_0t        -14.3101  -19.0466  -27.9244 hd      1  lig       0.132243
     31 H_0u        -14.0222  -24.7810  -27.6785 he      1  lig       0.440330
     32 H_0v        -16.6618  -23.9901  -26.6844 hf      1  lig       0.051225
     33 H_0w        -16.0289  -24.3088  -25.0631 hg      1  lig       0.051225
     34 H_0x        -15.6110  -25.3634  -26.3774 hh      1  lig       0.051225
     35 H_0y        -12.5475  -22.9733  -25.8340 hi      1  lig       0.043330
     36 H_0z        -12.9786  -24.6668  -25.7243 hj      1  lig       0.043330
     37 H_10        -13.5559  -23.5311  -24.5063 hk      1  lig       0.043330
@<TRIPOS>BOND
     1     1     2    2
     2     1     3    1
     3     1    24    1
     4     2     4    1
     5     2     5    1
     6     3     6    2
     7     3    25    1
     8     4     7    2
     9     4     8    1
    10     5    11    2
    11     6     7    1
    12     6    20    1
    13     7    21    1
    14     8     9    1
    15     8    10    2
    16     9    11    1
    17     9    26    1
    18    11    12    1
    19    12    13    2
    20    12    17    1
    21    13    14    1
    22    13    27    1
    23    14    15    2
    24    14    28    1
    25    15    16    1
    26    15    18    1
    27    16    17    2
    28    16    29    1
    29    17    30    1
    30    18    19    1
    31    18    22    1
    32    18    23    1
    33    19    31    1
    34    22    32    1
    35    22    33    1
    36    22    34    1
    37    23    35    1
    38    23    36    1
    39    23    37    1
