@<TRIPOS>MOLECULE
lig
  37   39 0 0 0
SMALL
NO_CHARGES


@<TRIPOS>ATOM
      1 C_00        -14.4532  -14.7787  -27.4312 c4      1  lig       0.159206
      2 C_01        -15.1418  -15.5967  -26.5280 c5      1  lig       0.249037
      3 C_02        -14.5909  -13.3992  -27.3291 c6      1  lig      -0.223087
      4 C_03        -15.9826  -15.0410  -25.5537 c7      1  lig      -0.097234
      5 N_04        -14.9735  -16.9774  -26.6084 n0      1  lig      -0.500465
      6 C_05        -15.4131  -12.8584  -26.3442 c8      1  lig       0.214685
      7 C_06        -16.1201  -13.6612  -25.4553 c9      1  lig      -0.263057
      8 C_07        -16.7396  -15.9720  -24.6306 cb      1  lig       0.582627
      9 N_08        -16.4336  -17.2753  -24.8698 ng      1  lig      -0.409753
     10 O_09        -17.5633  -15.6368  -23.7781 o0      1  lig      -0.564721
     11 C_0a        -15.5834  -17.7992  -25.8267 ci      1  lig       0.457291
     12 C_0b        -15.4138  -19.2509  -25.9685 cj      1  lig      -0.051935
     13 C_0c        -15.7847  -20.1437  -24.9565 ck      1  lig      -0.178809
     14 C_0d        -15.5471  -21.5021  -25.1160 cm      1  lig      -0.221544
     15 C_0e        -14.9582  -21.9835  -26.2915 cn      1  lig       0.074116
     16 C_0f        -14.6239  -21.0987  -27.3099 co      1  lig      -0.088412
     17 C_0g        -14.8497  -19.7472  -27.1519 cq      1  lig      -0.139867
     18 C_0h        -14.5900  -23.4561  -26.4138 cr      1  lig       0.384119
     19 O_0i        -14.2444  -23.8763  -27.7078 o1      1  lig      -0.711081
     20 F_0j        -13.6455  -15.3006  -28.3854 f0      1  lig      -0.167649
     21 F_0k        -15.5384  -11.5358  -26.2611 f1      1  lig      -0.173738
     22 C_0l        -15.7758  -24.3565  -26.1019 cs      1  lig      -0.201332
     23 C_0m        -13.3488  -23.6919  -25.5595 ct      1  lig      -0.179894
     24 H_0n        -14.0597  -12.7443  -28.0056 h0      1  lig       0.198676
     25 H_0o        -16.7581  -13.2074  -24.7085 h6      1  lig       0.213952
     26 H_0p        -16.9858  -17.9241  -24.3249 h7      1  lig       0.303031
     27 H_0q        -16.2302  -19.8058  -24.0320 h8      1  lig       0.147869
     28 H_0r        -15.7900  -22.1726  -24.3047 h9      1  lig       0.172641
     29 H_0s        -14.1524  -21.4456  -28.2174 hb      1  lig       0.157717
     30 H_0t        -14.5605  -19.0924  -27.9627 hd      1  lig       0.132709
     31 H_0u        -14.0247  -24.8146  -27.6747 he      1  lig       0.441641
     32 H_0v        -16.6761  -24.0007  -26.6015 hf      1  lig       0.049915
     33 H_0w        -15.9684  -24.3857  -25.0310 hg      1  lig       0.049915
     34 H_0x        -15.6227  -25.3956  -26.4010 hh      1  lig       0.049915
     35 H_0y        -12.5457  -23.0123  -25.8405 hi      1  lig       0.044505
     36 H_0z        -12.9804  -24.7062  -25.6843 hj      1  lig       0.044505
     37 H_10        -13.5498  -23.5431  -24.4981 hk      1  lig       0.044506
@<TRIPOS>BOND
     1     1     2    2
     2     1     3    1
     3     1    20    1
     4     2     4    1
     5     2     5    1
     6     3     6    2
     7     3    24    1
     8     4     7    2
     9     4     8    1
    10     5    11    2
    11     6     7    1
    12     6    21    1
    13     7    25    1
    14     8     9    1
    15     8    10    2
    16     9    11    1
    17     9    26    1
    18    11    12    1
    19    12    13    2
    20    12    17    1
    21    13    14    1
    22    13    27    1
    23    14    15    2
    24    14    28    1
    25    15    16    1
    26    15    18    1
    27    16    17    2
    28    16    29    1
    29    17    30    1
    30    18    19    1
    31    18    22    1
    32    18    23    1
    33    19    31    1
    34    22    32    1
    35    22    33    1
    36    22    34    1
    37    23    35    1
    38    23    36    1
    39    23    37    1
