@<TRIPOS>MOLECULE
lig
  37   39 0 0 0
SMALL
NO_CHARGES


@<TRIPOS>ATOM
      1 C_00        -15.3002  -19.2006  -26.0265 c4      1  lig      -0.035017
      2 C_01        -15.7139  -20.0866  -25.0199 c5      1  lig      -0.179172
      3 C_02        -14.7328  -19.7204  -27.1959 c6      1  lig      -0.151928
      4 C_03        -15.5262  -21.4548  -25.1704 c7      1  lig      -0.229582
      5 C_04        -14.5510  -21.0858  -27.3440 c8      1  lig      -0.083167
      6 N_05        -14.9761  -16.8867  -26.7340 n0      1  lig      -0.452313
      7 C_06        -14.9308  -21.9629  -26.3290 c9      1  lig       0.111173
      8 C_07        -14.5881  -23.4511  -26.4179 cb      1  lig       0.328904
      9 C_08        -16.5444  -15.9689  -24.5640 ci      1  lig       0.548056
     10 N_09        -16.1761  -17.2463  -24.8220 ng      1  lig      -0.412644
     11 C_0a        -15.4513  -17.7394  -25.8850 cj      1  lig       0.448260
     12 O_0b        -17.3758  -15.7040  -23.6992 o0      1  lig      -0.542010
     13 C_0c        -15.7761  -24.3593  -26.0992 ck      1  lig      -0.201453
     14 O_0d        -14.2360  -23.8967  -27.6992 o1      1  lig      -0.699676
     15 C_0e        -13.3505  -23.6941  -25.5581 cm      1  lig      -0.192363
     16 C_0f        -15.1508  -15.4985  -26.5840 cn      1  lig       0.101444
     17 C_0g        -15.8726  -14.9888  -25.4979 co      1  lig      -0.024475
     18 C_0h        -15.9461  -13.6145  -25.2800 cq      1  lig       0.164857
     19 C_0i        -15.3326  -12.7448  -26.1831 cr      1  lig      -0.244530
     20 C_0j        -14.6579  -13.2427  -27.2994 cs      1  lig      -0.214472
     21 C_0k        -14.5674  -14.6209  -27.5072 ct      1  lig       0.238148
     22 F_0l        -13.8810  -15.0871  -28.5782 f0      1  lig      -0.195973
     23 F_0m        -16.5760  -13.1269  -24.1896 f1      1  lig      -0.146664
     24 H_0n        -16.1615  -19.7384  -24.0998 h0      1  lig       0.147343
     25 H_0o        -14.4118  -19.0716  -27.9995 h6      1  lig       0.135149
     26 H_0p        -15.8081  -22.1136  -24.3616 h7      1  lig       0.174267
     27 H_0q        -14.0716  -21.4524  -28.2397 h8      1  lig       0.153444
     28 H_0r        -16.6579  -17.9163  -24.2374 h9      1  lig       0.304997
     29 H_0s        -16.6617  -24.0400  -26.6490 hb      1  lig       0.053347
     30 H_0t        -16.0045  -24.3593  -25.0354 hd      1  lig       0.053347
     31 H_0u        -15.5956  -25.4051  -26.3563 he      1  lig       0.053347
     32 H_0v        -14.1133  -24.8528  -27.6650 hf      1  lig       0.443543
     33 H_0w        -12.5490  -23.0067  -25.8239 hg      1  lig       0.051096
     34 H_0x        -12.9761  -24.7077  -25.6991 hh      1  lig       0.051096
     35 H_0y        -13.5598  -23.5591  -24.4960 hi      1  lig       0.051096
     36 H_0z        -15.3724  -11.6781  -26.0178 hj      1  lig       0.193141
     37 H_10        -14.1860  -12.5585  -27.9922 hk      1  lig       0.199384
@<TRIPOS>BOND
     1     1     2    1
     2     1     3    2
     3     1    11    1
     4     2     4    2
     5     2    24    1
     6     3     5    1
     7     3    25    1
     8     4     7    1
     9     4    26    1
    10     5     7    2
    11     5    27    1
    12     6    11    2
    13     6    16    1
    14     7     8    1
    15     8    13    1
    16     8    14    1
    17     8    15    1
    18     9    10    1
    19     9    12    2
    20     9    17    1
    21    10    11    1
    22    10    28    1
    23    13    29    1
    24    13    30    1
    25    13    31    1
    26    14    32    1
    27    15    33    1
    28    15    34    1
    29    15    35    1
    30    16    17    2
    31    16    21    1
    32    17    18    1
    33    18    19    2
    34    18    23    1
    35    19    20    1
    36    19    36    1
    37    20    21    2
    38    20    37    1
    39    21    22    1
