@<TRIPOS>MOLECULE
lig
  40   42 0 0 0
SMALL
NO_CHARGES


@<TRIPOS>ATOM
      1 C_00        -15.3524  -19.2206  -25.9684 c4      1  lig      -0.023874
      2 C_01        -14.6526  -19.7081  -27.0823 c5      1  lig      -0.157601
      3 C_02        -15.8555  -20.1235  -25.0241 c6      1  lig      -0.153616
      4 C_03        -14.4541  -21.0636  -27.2485 c7      1  lig      -0.078642
      5 C_04        -15.6357  -21.4854  -25.1840 c8      1  lig      -0.247725
      6 N_05        -15.0526  -16.9445  -26.6871 n0      1  lig      -0.386895
      7 C_06        -14.9347  -21.9631  -26.2988 c9      1  lig       0.099965
      8 C_07        -14.5888  -23.4446  -26.4247 cb      1  lig       0.346845
      9 C_08        -15.2162  -15.5610  -26.5929 ci      1  lig       0.134102
     10 C_09        -15.9031  -15.0059  -25.5037 cj      1  lig      -0.049491
     11 C_0a        -15.4462  -12.8187  -26.3599 ck      1  lig       0.239624
     12 C_0b        -14.7773  -13.3552  -27.4525 cm      1  lig      -0.255486
     13 C_0c        -16.0203  -13.6235  -25.3815 cn      1  lig      -0.254515
     14 C_0d        -14.6768  -14.7359  -27.5934 co      1  lig       0.052062
     15 C_0e        -16.5313  -15.9392  -24.4895 cq      1  lig       0.537416
     16 N_0f        -16.2584  -17.2435  -24.7671 ng      1  lig      -0.333470
     17 C_0g        -15.5317  -17.7669  -25.8203 cr      1  lig       0.334572
     18 O_0h        -17.2406  -15.6098  -23.5374 o0      1  lig      -0.564310
     19 C_0i        -15.7674  -24.3602  -26.0940 cs      1  lig      -0.193830
     20 O_0j        -14.2652  -23.8414  -27.7410 o1      1  lig      -0.703950
     21 C_0k        -13.3585  -23.6997  -25.5565 ct      1  lig      -0.199962
     22 C_0l        -13.9802  -15.2817  -28.8279 cw      1  lig      -0.138493
     23 F_0m        -15.5606  -11.4961  -26.2801 f0      1  lig      -0.189385
     24 H_0n        -14.2525  -19.0464  -27.8382 h0      1  lig       0.125276
     25 H_0o        -16.3981  -19.7943  -24.1510 h6      1  lig       0.140529
     26 H_0p        -13.8938  -21.4078  -28.1049 h7      1  lig       0.152180
     27 H_0q        -15.9903  -22.1635  -24.4209 h8      1  lig       0.177586
     28 H_0r        -14.3604  -12.6891  -28.1964 h9      1  lig       0.185716
     29 H_0s        -16.5458  -13.1713  -24.5494 hb      1  lig       0.201718
     30 H_0t        -16.7352  -17.8915  -24.1540 hd      1  lig       0.287118
     31 H_0u        -16.6293  -24.0551  -26.6777 he      1  lig       0.050483
     32 H_0v        -16.0069  -24.3345  -25.0330 hf      1  lig       0.050483
     33 H_0w        -15.5729  -25.4035  -26.3467 hg      1  lig       0.050484
     34 H_0x        -14.0509  -24.7825  -27.7322 hh      1  lig       0.442487
     35 H_0y        -12.5192  -23.0885  -25.8861 hi      1  lig       0.051911
     36 H_0z        -13.0630  -24.7313  -25.6290 hj      1  lig       0.051911
     37 H_10        -13.5418  -23.4778  -24.5056 hk      1  lig       0.051911
     38 H_11        -14.0711  -14.5965  -29.6735 hl      1  lig       0.055622
     39 H_12        -14.4139  -16.2335  -29.1342 hm      1  lig       0.055622
     40 H_13        -12.9197  -15.4294  -28.6265 hq      1  lig       0.055622
@<TRIPOS>BOND
     1     1     2    1
     2     1     3    2
     3     1    17    1
     4     2     4    2
     5     2    24    1
     6     3     5    1
     7     3    25    1
     8     4     7    1
     9     4    26    1
    10     5     7    2
    11     5    27    1
    12     6     9    1
    13     6    17    2
    14     7     8    1
    15     8    19    1
    16     8    20    1
    17     8    21    1
    18     9    10    2
    19     9    14    1
    20    10    13    1
    21    10    15    1
    22    11    12    1
    23    11    13    2
    24    11    23    1
    25    12    14    2
    26    12    28    1
    27    13    29    1
    28    14    22    1
    29    15    16    1
    30    15    18    2
    31    16    17    1
    32    16    30    1
    33    19    31    1
    34    19    32    1
    35    19    33    1
    36    20    34    1
    37    21    35    1
    38    21    36    1
    39    21    37    1
    40    22    38    1
    41    22    39    1
    42    22    40    1
