@<TRIPOS>MOLECULE
lig
  44   46 0 0 0
SMALL
NO_CHARGES


@<TRIPOS>ATOM
      1 C_00        -15.1971  -19.2586  -25.9604 c4      1  lig      -0.029585
      2 C_01        -15.4619  -20.0875  -24.8625 c5      1  lig      -0.175655
      3 C_02        -14.7320  -19.8457  -27.1467 c6      1  lig      -0.125293
      4 C_03        -15.3732  -17.7885  -25.8846 c7      1  lig       0.438219
      5 C_04        -15.2356  -21.4582  -24.9463 c8      1  lig      -0.217224
      6 C_05        -14.5189  -21.2175  -27.2320 c9      1  lig      -0.099714
      7 C_06        -14.7643  -22.0441  -26.1317 cb      1  lig       0.041429
      8 N_07        -16.1228  -17.2312  -24.8599 n0      1  lig      -0.377027
      9 C_08        -16.3920  -15.9186  -24.6105 ci      1  lig       0.528753
     10 N_09        -14.8661  -16.9841  -26.7605 ng      1  lig      -0.544996
     11 C_0a        -15.0231  -15.5933  -26.6800 cj      1  lig       0.293686
     12 C_0b        -15.7490  -15.0059  -25.6350 ck      1  lig      -0.048396
     13 C_0c        -15.8668  -13.6148  -25.5520 cm      1  lig      -0.244016
     14 C_0d        -15.2558  -12.8198  -26.5261 cn      1  lig       0.236010
     15 C_0e        -14.5498  -13.4080  -27.5783 co      1  lig      -0.174953
     16 C_0f        -14.4351  -14.7960  -27.6619 cq      1  lig      -0.235621
     17 O_0g        -17.0983  -15.5613  -23.6650 o0      1  lig      -0.558452
     18 C_0h        -14.4776  -23.5653  -26.1895 cr      1  lig       0.291835
     19 C_0i        -15.7149  -24.3179  -25.6602 cs      1  lig      -0.127431
     20 C_0j        -13.2176  -23.8359  -25.3472 ct      1  lig      -0.161887
     21 O_0k        -14.1517  -23.9464  -27.5429 o1      1  lig      -0.351333
     22 F_0l        -15.3497  -11.4734  -26.4630 f0      1  lig      -0.192776
     23 C_0m        -14.5501  -25.2004  -28.1255 cw      1  lig      -0.032811
     24 C_0n        -13.9103  -26.4874  -27.5451 cA      1  lig       0.132528
     25 O_0o        -12.5968  -26.7509  -28.0034 o2      1  lig      -0.602270
     26 H_0p        -15.8196  -19.6850  -23.9247 h0      1  lig       0.144425
     27 H_0q        -14.5225  -19.2408  -28.0188 h6      1  lig       0.134576
     28 H_0r        -15.4176  -22.0605  -24.0678 h7      1  lig       0.178433
     29 H_0s        -14.1391  -21.6264  -28.1554 h8      1  lig       0.117294
     30 H_0t        -16.6125  -17.8632  -24.2414 h9      1  lig       0.295332
     31 H_0u        -16.4177  -13.1519  -24.7449 hb      1  lig       0.201768
     32 H_0v        -14.0836  -12.7847  -28.3266 hd      1  lig       0.179670
     33 H_0w        -13.8819  -15.2499  -28.4711 he      1  lig       0.172514
     34 H_0x        -15.8115  -24.1761  -24.5859 hf      1  lig       0.035750
     35 H_0y        -15.7466  -25.3887  -25.8320 hg      1  lig       0.035750
     36 H_0z        -16.5770  -23.9172  -26.1750 hh      1  lig       0.035750
     37 H_10        -13.4391  -23.9417  -24.2857 hi      1  lig       0.045452
     38 H_11        -12.5508  -22.9864  -25.4295 hj      1  lig       0.045452
     39 H_12        -12.6588  -24.7122  -25.6687 hk      1  lig       0.045452
     40 H_13        -14.3407  -25.1537  -29.1933 hl      1  lig       0.086524
     41 H_14        -15.6352  -25.2750  -28.0624 hm      1  lig       0.086524
     42 H_15        -14.5229  -27.3485  -27.8131 hq      1  lig       0.056899
     43 H_16        -13.8881  -26.4540  -26.4637 hr      1  lig       0.056899
     44 H_17        -12.6445  -27.1725  -28.8674 ht      1  lig       0.382516
@<TRIPOS>BOND
     1     1     2    1
     2     1     3    2
     3     1     4    1
     4     2     5    2
     5     2    26    1
     6     3     6    1
     7     3    27    1
     8     4     8    1
     9     4    10    2
    10     5     7    1
    11     5    28    1
    12     6     7    2
    13     6    29    1
    14     7    18    1
    15     8     9    1
    16     8    30    1
    17     9    12    1
    18     9    17    2
    19    10    11    1
    20    11    12    2
    21    11    16    1
    22    12    13    1
    23    13    14    2
    24    13    31    1
    25    14    15    1
    26    14    22    1
    27    15    16    2
    28    15    32    1
    29    16    33    1
    30    18    19    1
    31    18    20    1
    32    18    21    1
    33    19    34    1
    34    19    35    1
    35    19    36    1
    36    20    37    1
    37    20    38    1
    38    20    39    1
    39    21    23    1
    40    23    24    1
    41    23    40    1
    42    23    41    1
    43    24    25    1
    44    24    42    1
    45    24    43    1
    46    25    44    1
