@<TRIPOS>MOLECULE
lig
  47   49 0 0 0
SMALL
NO_CHARGES


@<TRIPOS>ATOM
      1 C_00        -15.3450  -19.1365  -26.0277 c4      1  lig      -0.012753
      2 C_01        -15.8287  -20.0041  -25.0403 c5      1  lig      -0.215193
      3 C_02        -14.6494  -19.6781  -27.1161 c6      1  lig      -0.130461
      4 C_03        -15.6114  -21.3734  -25.1437 c7      1  lig      -0.090473
      5 C_04        -14.4534  -21.0504  -27.2249 c8      1  lig      -0.153754
      6 N_05        -15.0797  -16.8396  -26.7962 n0      1  lig      -0.394634
      7 C_06        -14.9411  -21.9202  -26.2491 c9      1  lig       0.058527
      8 C_07        -14.7174  -23.4472  -26.3565 cb      1  lig       0.216724
      9 C_08        -15.2121  -15.4451  -26.6641 ci      1  lig       0.144797
     10 C_09        -15.8856  -14.9026  -25.5597 cj      1  lig      -0.053894
     11 C_0a        -15.4771  -12.6758  -26.3957 ck      1  lig       0.228624
     12 C_0b        -14.8064  -13.2106  -27.4898 cm      1  lig      -0.247210
     13 C_0c        -16.0203  -13.5169  -25.4209 cn      1  lig      -0.239724
     14 C_0d        -14.6721  -14.5903  -27.6396 co      1  lig       0.042930
     15 C_0e        -16.4601  -15.8518  -24.5285 cq      1  lig       0.529497
     16 N_0f        -16.2181  -17.1526  -24.8371 ng      1  lig      -0.335376
     17 C_0g        -15.5316  -17.6723  -25.9177 cr      1  lig       0.341688
     18 O_0h        -17.0968  -15.5416  -23.5233 o0      1  lig      -0.560891
     19 C_0i        -16.0886  -24.1459  -26.3732 cs      1  lig      -0.241929
     20 O_0j        -13.9745  -23.7493  -27.5590 o1      1  lig      -0.433450
     21 C_0k        -13.8348  -23.8741  -25.1800 ct      1  lig      -0.359021
     22 C_0l        -13.9391  -15.1231  -28.8574 cw      1  lig      -0.142701
     23 F_0m        -15.6115  -11.3343  -26.3138 f0      1  lig      -0.187489
     24 C_0n        -12.5786  -23.4229  -27.6930 cA      1  lig       0.154704
     25 C_0o        -11.5993  -24.0909  -26.7047 cB      1  lig       0.271397
     26 O_0p        -10.2664  -23.7087  -26.9378 o2      1  lig      -0.706957
     27 H_0q        -16.3593  -19.6397  -24.1712 h0      1  lig       0.147892
     28 H_0r        -14.2603  -19.0378  -27.8948 h6      1  lig       0.123868
     29 H_0s        -15.9770  -21.9973  -24.3439 h7      1  lig       0.124157
     30 H_0t        -13.9076  -21.4302  -28.0753 h8      1  lig       0.178427
     31 H_0u        -14.3905  -12.5391  -28.2267 h9      1  lig       0.186561
     32 H_0v        -16.5404  -13.0953  -24.5734 hb      1  lig       0.199569
     33 H_0w        -16.6563  -17.8081  -24.2063 hd      1  lig       0.291994
     34 H_0x        -16.6433  -24.0186  -25.4478 he      1  lig       0.086101
     35 H_0y        -16.0953  -25.2082  -26.5876 hf      1  lig       0.086101
     36 H_0z        -16.6148  -23.6851  -27.1907 hg      1  lig       0.086101
     37 H_10        -14.3494  -23.7841  -24.2225 hh      1  lig       0.100892
     38 H_11        -12.9787  -23.2079  -25.1484 hi      1  lig       0.100892
     39 H_12        -13.4451  -24.8835  -25.2653 hj      1  lig       0.100892
     40 H_13        -13.7952  -14.3631  -29.6261 hk      1  lig       0.057473
     41 H_14        -14.5198  -15.9337  -29.2895 hl      1  lig       0.057473
     42 H_15        -12.9647  -15.5167  -28.5732 hm      1  lig       0.057473
     43 H_16        -12.4676  -22.3457  -27.5952 hq      1  lig       0.019814
     44 H_17        -12.2697  -23.6429  -28.7147 hr      1  lig       0.019814
     45 H_18        -11.6557  -25.1731  -26.8146 ht      1  lig       0.035075
     46 H_19        -11.8403  -23.8769  -25.6698 hu      1  lig       0.035075
     47 H_1a        -10.1870  -22.7599  -26.8041 hv      1  lig       0.421378
@<TRIPOS>BOND
     1     1     2    1
     2     1     3    2
     3     1    17    1
     4     2     4    2
     5     2    27    1
     6     3     5    1
     7     3    28    1
     8     4     7    1
     9     4    29    1
    10     5     7    2
    11     5    30    1
    12     6     9    1
    13     6    17    2
    14     7     8    1
    15     8    19    1
    16     8    20    1
    17     8    21    1
    18     9    10    2
    19     9    14    1
    20    10    13    1
    21    10    15    1
    22    11    12    1
    23    11    13    2
    24    11    23    1
    25    12    14    2
    26    12    31    1
    27    13    32    1
    28    14    22    1
    29    15    16    1
    30    15    18    2
    31    16    17    1
    32    16    33    1
    33    19    34    1
    34    19    35    1
    35    19    36    1
    36    20    24    1
    37    21    37    1
    38    21    38    1
    39    21    39    1
    40    22    40    1
    41    22    41    1
    42    22    42    1
    43    24    25    1
    44    24    43    1
    45    24    44    1
    46    25    26    1
    47    25    45    1
    48    25    46    1
    49    26    47    1
