@<TRIPOS>MOLECULE
lig
  47   49 0 0 0
SMALL
NO_CHARGES


@<TRIPOS>ATOM
      1 C_00        -15.1391  -19.1877  -26.0186 c4      1  lig      -0.033190
      2 C_01        -15.5010  -20.0128  -24.9471 c5      1  lig      -0.181577
      3 C_02        -14.5525  -19.7739  -27.1523 c6      1  lig      -0.122788
      4 C_03        -15.3503  -17.7235  -25.9544 c7      1  lig       0.430426
      5 C_04        -15.2829  -21.3817  -25.0113 c8      1  lig      -0.205468
      6 C_05        -14.3643  -21.1508  -27.2261 c9      1  lig      -0.097438
      7 C_06        -14.7323  -21.9756  -26.1583 cb      1  lig       0.039234
      8 N_07        -16.1184  -17.1836  -24.9340 n0      1  lig      -0.365357
      9 C_08        -16.3992  -15.8795  -24.6695 ci      1  lig       0.519367
     10 N_09        -14.8462  -16.9083  -26.8217 ng      1  lig      -0.541117
     11 C_0a        -15.0124  -15.5202  -26.7198 cj      1  lig       0.290261
     12 C_0b        -15.7518  -14.9489  -25.6748 ck      1  lig      -0.041863
     13 C_0c        -15.8744  -13.5587  -25.5758 cm      1  lig      -0.243216
     14 C_0d        -15.2543  -12.7508  -26.5345 cn      1  lig       0.230585
     15 C_0e        -14.5303  -13.3235  -27.5816 co      1  lig      -0.171986
     16 C_0f        -14.4104  -14.7092  -27.6795 cq      1  lig      -0.237425
     17 O_0g        -17.1164  -15.5510  -23.7222 o0      1  lig      -0.558294
     18 C_0h        -14.4845  -23.5033  -26.2094 cr      1  lig       0.255298
     19 O_0i        -14.2410  -23.9010  -27.5752 o1      1  lig      -0.304356
     20 F_0j        -15.3500  -11.4050  -26.4634 f0      1  lig      -0.192545
     21 C_0k        -14.6693  -25.1645  -28.1103 cs      1  lig       0.032981
     22 C_0l        -13.9892  -26.4251  -27.5377 ct      1  lig       0.017769
     23 O_0m        -12.6044  -26.5401  -27.8382 o2      1  lig      -0.369862
     24 C_0n        -12.3229  -27.1506  -29.0924 cw      1  lig       0.053340
     25 C_0o        -15.6962  -24.2267  -25.5810 cA      1  lig      -0.213420
     26 C_0p        -13.1775  -23.7773  -25.4569 cB      1  lig      -0.149951
     27 H_0q        -15.9389  -19.6120  -24.0438 h0      1  lig       0.143507
     28 H_0r        -14.2540  -19.1694  -27.9974 h6      1  lig       0.132860
     29 H_0s        -15.5470  -21.9658  -24.1433 h7      1  lig       0.177511
     30 H_0t        -13.9130  -21.5646  -28.1156 h8      1  lig       0.109788
     31 H_0u        -16.6018  -17.8247  -24.3203 h9      1  lig       0.293954
     32 H_0v        -16.4327  -13.1137  -24.7651 hb      1  lig       0.201380
     33 H_0w        -14.0553  -12.6884  -28.3147 hd      1  lig       0.178493
     34 H_0x        -13.8444  -15.1517  -28.4863 he      1  lig       0.171951
     35 H_0y        -14.4895  -25.1509  -29.1832 hf      1  lig       0.057557
     36 H_0z        -15.7505  -25.2469  -28.0138 hg      1  lig       0.057557
     37 H_10        -14.5352  -27.3238  -27.8299 hh      1  lig       0.074261
     38 H_11        -14.0516  -26.3877  -26.4633 hi      1  lig       0.074261
     39 H_12        -11.2445  -27.1849  -29.2440 hj      1  lig       0.051145
     40 H_13        -12.7529  -26.5894  -29.9224 hk      1  lig       0.051145
     41 H_14        -12.6953  -28.1753  -29.1292 hl      1  lig       0.051145
     42 H_15        -15.7515  -24.0311  -24.5112 hm      1  lig       0.063341
     43 H_16        -15.7512  -25.3036  -25.6753 hq      1  lig       0.063341
     44 H_17        -16.5797  -23.8430  -26.0634 hr      1  lig       0.063341
     45 H_18        -13.2909  -23.6779  -24.3763 ht      1  lig       0.048018
     46 H_19        -12.4611  -23.0266  -25.7707 hu      1  lig       0.048018
     47 H_1a        -12.7391  -24.7495  -25.6787 hv      1  lig       0.048018
@<TRIPOS>BOND
     1     1     2    1
     2     1     3    2
     3     1     4    1
     4     2     5    2
     5     2    27    1
     6     3     6    1
     7     3    28    1
     8     4     8    1
     9     4    10    2
    10     5     7    1
    11     5    29    1
    12     6     7    2
    13     6    30    1
    14     7    18    1
    15     8     9    1
    16     8    31    1
    17     9    12    1
    18     9    17    2
    19    10    11    1
    20    11    12    2
    21    11    16    1
    22    12    13    1
    23    13    14    2
    24    13    32    1
    25    14    15    1
    26    14    20    1
    27    15    16    2
    28    15    33    1
    29    16    34    1
    30    18    19    1
    31    18    25    1
    32    18    26    1
    33    19    21    1
    34    21    22    1
    35    21    35    1
    36    21    36    1
    37    22    23    1
    38    22    37    1
    39    22    38    1
    40    23    24    1
    41    24    39    1
    42    24    40    1
    43    24    41    1
    44    25    42    1
    45    25    43    1
    46    25    44    1
    47    26    45    1
    48    26    46    1
    49    26    47    1
