@<TRIPOS>MOLECULE
lig
  36   38 0 0 0
SMALL
NO_CHARGES


@<TRIPOS>ATOM
      1 C_00        -15.1391  -19.1877  -26.0186 c4      1  lig       0.251244
      2 N_01        -15.5010  -20.0128  -24.9471 n0      1  lig      -0.409506
      3 C_02        -14.5525  -19.7739  -27.1523 c5      1  lig      -0.190082
      4 C_03        -15.3503  -17.7235  -25.9544 c6      1  lig       0.283094
      5 C_04        -15.2829  -21.3817  -25.0113 c7      1  lig      -0.014784
      6 C_05        -14.3643  -21.1508  -27.2261 c8      1  lig      -0.084750
      7 C_06        -14.7323  -21.9756  -26.1583 c9      1  lig       0.128507
      8 N_07        -16.1184  -17.1836  -24.9340 ng      1  lig      -0.172714
      9 C_08        -16.3992  -15.8795  -24.6695 cb      1  lig       0.460661
     10 N_09        -14.8462  -16.9083  -26.8217 nr      1  lig      -0.520197
     11 C_0a        -15.0124  -15.5202  -26.7198 ci      1  lig       0.328180
     12 C_0b        -15.7518  -14.9489  -25.6748 cj      1  lig      -0.056512
     13 C_0c        -15.8744  -13.5587  -25.5758 ck      1  lig      -0.227593
     14 C_0d        -15.2543  -12.7508  -26.5345 cm      1  lig       0.232043
     15 C_0e        -14.5303  -13.3235  -27.5816 cn      1  lig      -0.159007
     16 C_0f        -14.4104  -14.7092  -27.6795 co      1  lig      -0.284295
     17 O_0g        -17.1164  -15.5510  -23.7222 o0      1  lig      -0.539595
     18 C_0h        -14.4845  -23.5033  -26.2094 cq      1  lig       0.344789
     19 O_0i        -14.2410  -23.9010  -27.5752 o1      1  lig      -0.708866
     20 F_0j        -15.3500  -11.4050  -26.4634 f0      1  lig      -0.194428
     21 C_0k        -15.6962  -24.2267  -25.5810 cr      1  lig      -0.243500
     22 C_0l        -13.1775  -23.7773  -25.4569 cs      1  lig      -0.243579
     23 H_0m        -14.2540  -19.1694  -27.9974 h0      1  lig       0.123726
     24 H_0n        -15.5470  -21.9658  -24.1433 h6      1  lig       0.144221
     25 H_0o        -13.9130  -21.5646  -28.1156 h7      1  lig       0.170167
     26 H_0p        -16.6018  -17.8247  -24.3203 h8      1  lig       0.199804
     27 H_0q        -16.4327  -13.1137  -24.7651 h9      1  lig       0.196254
     28 H_0r        -14.0553  -12.6884  -28.3147 hb      1  lig       0.176491
     29 H_0s        -13.8444  -15.1517  -28.4863 hd      1  lig       0.182633
     30 H_0t        -15.7515  -24.0311  -24.5112 he      1  lig       0.063742
     31 H_0u        -15.7512  -25.3036  -25.6753 hf      1  lig       0.063742
     32 H_0v        -16.5797  -23.8430  -26.0634 hg      1  lig       0.063742
     33 H_0w        -13.2909  -23.6779  -24.3763 hh      1  lig       0.063760
     34 H_0x        -12.4611  -23.0266  -25.7707 hi      1  lig       0.063760
     35 H_0y        -12.7391  -24.7495  -25.6787 hj      1  lig       0.063760
     36 H_0z        -14.0869  -24.8479  -27.6106 hk      1  lig       0.445088
@<TRIPOS>BOND
     1     1     2    1
     2     1     3    2
     3     1     4    1
     4     2     5    2
     5     3     6    1
     6     3    23    1
     7     4     8    1
     8     4    10    2
     9     5     7    1
    10     5    24    1
    11     6     7    2
    12     6    25    1
    13     7    18    1
    14     8     9    1
    15     8    26    1
    16     9    12    1
    17     9    17    2
    18    10    11    1
    19    11    12    2
    20    11    16    1
    21    12    13    1
    22    13    14    2
    23    13    27    1
    24    14    15    1
    25    14    20    1
    26    15    16    2
    27    15    28    1
    28    16    29    1
    29    18    19    1
    30    18    21    1
    31    18    22    1
    32    19    36    1
    33    21    30    1
    34    21    31    1
    35    21    32    1
    36    22    33    1
    37    22    34    1
    38    22    35    1
