@<TRIPOS>MOLECULE
lig
  45   48 0 0 0
SMALL
NO_CHARGES


@<TRIPOS>ATOM
      1 C_00        -14.4976  -14.8078  -27.6041 c4      1  lig      -0.239608
      2 C_01        -15.0860  -15.6146  -26.6121 c5      1  lig       0.268900
      3 C_02        -14.5776  -13.4189  -27.4910 c6      1  lig      -0.164794
      4 C_03        -15.7974  -15.0175  -25.5617 c7      1  lig      -0.020156
      5 N_04        -14.9497  -17.0161  -26.6693 n0      1  lig      -0.532403
      6 C_05        -15.2599  -12.8300  -26.4299 c8      1  lig       0.258337
      7 C_06        -15.8868  -13.6238  -25.4651 c9      1  lig      -0.263078
      8 C_07        -16.4709  -15.9214  -24.5493 cb      1  lig       0.531542
      9 N_08        -16.1516  -17.2326  -24.7414 ng      1  lig      -0.417703
     10 O_09        -17.2464  -15.5613  -23.6634 o0      1  lig      -0.543319
     11 C_0a        -15.4317  -17.8110  -25.7710 ci      1  lig       0.477791
     12 C_0b        -15.2745  -19.2883  -25.8445 cj      1  lig      -0.053322
     13 C_0c        -14.7650  -19.8714  -27.0158 ck      1  lig      -0.142345
     14 C_0d        -14.6263  -21.2503  -27.1285 cm      1  lig      -0.060605
     15 C_0e        -14.9818  -22.0879  -26.0683 cn      1  lig       0.089690
     16 C_0f        -15.4738  -21.5135  -24.8915 co      1  lig      -0.187773
     17 C_0g        -15.6247  -20.1316  -24.7809 cq      1  lig      -0.145517
     18 F_0h        -15.3111  -11.4823  -26.3542 f0      1  lig      -0.185488
     19 N_0i        -14.9414  -23.4608  -26.2022 nr      1  lig      -0.304706
     20 C_0j        -16.1549  -23.9516  -26.9975 cr      1  lig       0.074366
     21 C_0k        -16.1562  -25.4776  -27.1371 cs      1  lig      -0.189231
     22 N_0l        -14.9559  -25.8533  -28.0095 nw      1  lig      -0.052642
     23 C_0m        -13.6649  -25.5179  -27.2581 ct      1  lig      -0.217706
     24 C_0n        -13.6349  -24.0190  -26.8149 cw      1  lig       0.086528
     25 C_0o        -15.0017  -27.3550  -28.3866 cA      1  lig      -0.512419
     26 H_0p        -14.1111  -12.7839  -28.2306 h0      1  lig       0.182578
     27 H_0q        -16.4256  -13.1525  -24.6535 h6      1  lig       0.209428
     28 H_0r        -16.6444  -17.8520  -24.1113 h7      1  lig       0.302304
     29 H_0s        -14.4912  -19.2630  -27.8667 h8      1  lig       0.151321
     30 H_0t        -14.2683  -21.6534  -28.0631 h9      1  lig       0.107494
     31 H_0u        -15.7622  -22.1415  -24.0621 hb      1  lig       0.157888
     32 H_0v        -16.0195  -19.7338  -23.8570 hd      1  lig       0.162454
     33 H_0w        -16.1744  -23.5056  -27.9908 he      1  lig       0.070802
     34 H_0x        -17.0548  -23.6031  -26.5107 hf      1  lig       0.070802
     35 H_0y        -16.0869  -25.9943  -26.1808 hg      1  lig       0.172029
     36 H_0z        -17.0436  -25.8381  -27.6479 hh      1  lig       0.172029
     37 H_10        -13.6062  -26.2295  -26.4479 hi      1  lig       0.180227
     38 H_11        -12.9176  -25.7930  -27.9867 hj      1  lig       0.180227
     39 H_12        -13.3563  -23.4082  -27.6679 hk      1  lig       0.068789
     40 H_13        -12.8301  -23.8764  -26.0908 hl      1  lig       0.068789
     41 H_14        -14.1546  -27.5535  -29.0464 hm      1  lig       0.224683
     42 H_15        -15.9427  -27.5530  -28.9013 hq      1  lig       0.224683
     43 H_16        -14.9324  -27.9489  -27.4754 hr      1  lig       0.224683
     44 H_17        -14.9940  -25.2862  -28.8479 ht      1  lig       0.339424
     45 H_18        -13.9911  -15.2646  -28.4414 hu      1  lig       0.175027
@<TRIPOS>BOND
     1     1     2    2
     2     1     3    1
     3     1    45    1
     4     2     4    1
     5     2     5    1
     6     3     6    2
     7     3    26    1
     8     4     7    2
     9     4     8    1
    10     5    11    2
    11     6     7    1
    12     6    18    1
    13     7    27    1
    14     8     9    1
    15     8    10    2
    16     9    11    1
    17     9    28    1
    18    11    12    1
    19    12    13    2
    20    12    17    1
    21    13    14    1
    22    13    29    1
    23    14    15    2
    24    14    30    1
    25    15    16    1
    26    15    19    1
    27    16    17    2
    28    16    31    1
    29    17    32    1
    30    19    20    1
    31    19    24    1
    32    20    21    1
    33    20    33    1
    34    20    34    1
    35    21    22    1
    36    21    35    1
    37    21    36    1
    38    22    23    1
    39    22    25    1
    40    22    44    1
    41    23    24    1
    42    23    37    1
    43    23    38    1
    44    24    39    1
    45    24    40    1
    46    25    41    1
    47    25    42    1
    48    25    43    1
