@<TRIPOS>MOLECULE
lig
  42   45 0 0 0
SMALL
NO_CHARGES


@<TRIPOS>ATOM
      1 C_00        -14.7211  -14.6025  -27.6629 c4      1  lig       0.167192
      2 C_01        -15.2227  -15.4419  -26.6577 c5      1  lig       0.250761
      3 C_02        -14.8753  -13.2206  -27.5411 c6      1  lig      -0.225458
      4 C_03        -15.9006  -14.8913  -25.5607 c7      1  lig      -0.148133
      5 N_04        -15.0367  -16.8328  -26.7554 n0      1  lig      -0.500248
      6 C_05        -15.5348  -12.6758  -26.4366 c8      1  lig       0.229481
      7 C_06        -16.0572  -13.5069  -25.4443 c9      1  lig      -0.256771
      8 C_07        -16.4664  -15.8352  -24.5203 cb      1  lig       0.691609
      9 N_08        -16.1535  -17.1340  -24.7829 ng      1  lig      -0.514095
     10 O_09        -17.1585  -15.5152  -23.5539 o0      1  lig      -0.580996
     11 C_0a        -15.4774  -17.6632  -25.8670 ci      1  lig       0.506612
     12 C_0b        -15.3194  -19.1319  -26.0027 cj      1  lig      -0.091671
     13 C_0c        -14.6738  -19.6479  -27.1346 ck      1  lig      -0.084033
     14 C_0d        -14.5210  -21.0162  -27.3081 cm      1  lig      -0.147795
     15 C_0e        -14.9958  -21.9117  -26.3456 cn      1  lig      -0.002986
     16 C_0f        -15.6361  -21.4060  -25.2096 co      1  lig      -0.157860
     17 C_0g        -15.8086  -20.0317  -25.0439 cq      1  lig      -0.142377
     18 F_0h        -14.0699  -15.1067  -28.7383 f0      1  lig      -0.171279
     19 F_0i        -15.6737  -11.3360  -26.3349 f1      1  lig      -0.178424
     20 C_0j        -14.8817  -23.4147  -26.5564 cr      1  lig       0.092268
     21 C_0k        -16.2724  -24.0629  -26.5806 cs      1  lig      -0.165027
     22 C_0l        -16.1618  -25.5955  -26.6685 ct      1  lig       0.168769
     23 N_0m        -15.3848  -26.1077  -25.5404 nr      1  lig      -0.719314
     24 C_0n        -14.0195  -25.5854  -25.5808 cw      1  lig       0.164859
     25 C_0o        -14.0367  -24.0524  -25.4454 cA      1  lig      -0.173363
     26 H_0p        -14.4760  -12.5688  -28.3035 h0      1  lig       0.195648
     27 H_0q        -16.5727  -13.0701  -24.5997 h6      1  lig       0.205746
     28 H_0r        -16.5893  -17.7842  -24.1422 h7      1  lig       0.315471
     29 H_0s        -14.2967  -18.9915  -27.9079 h8      1  lig       0.116080
     30 H_0t        -14.0472  -21.3597  -28.2139 h9      1  lig       0.129968
     31 H_0u        -16.0174  -22.0763  -24.4526 hb      1  lig       0.137772
     32 H_0v        -16.3278  -19.6857  -24.1613 hd      1  lig       0.141617
     33 H_0w        -14.3921  -23.5606  -27.5193 he      1  lig       0.038328
     34 H_0x        -16.8293  -23.7815  -25.6869 hf      1  lig       0.076194
     35 H_0y        -16.8439  -23.6831  -27.4275 hg      1  lig       0.076194
     36 H_0z        -15.6993  -25.8939  -27.6093 hh      1  lig       0.006063
     37 H_10        -17.1563  -26.0413  -26.6534 hi      1  lig       0.006062
     38 H_11        -15.3470  -27.1149  -25.6055 hj      1  lig       0.365616
     39 H_12        -13.5305  -25.8836  -26.5082 hk      1  lig       0.007349
     40 H_13        -13.4414  -26.0237  -24.7672 hl      1  lig       0.007349
     41 H_14        -14.4317  -23.7701  -24.4695 hm      1  lig       0.081411
     42 H_15        -13.0186  -23.6650  -25.4853 hq      1  lig       0.081411
@<TRIPOS>BOND
     1     1     2    1
     2     1     3    2
     3     1    18    1
     4     2     4    2
     5     2     5    1
     6     3     6    1
     7     3    26    1
     8     4     7    1
     9     4     8    1
    10     5    11    2
    11     6     7    2
    12     6    19    1
    13     7    27    1
    14     8     9    1
    15     8    10    2
    16     9    11    1
    17     9    28    1
    18    11    12    1
    19    12    13    2
    20    12    17    1
    21    13    14    1
    22    13    29    1
    23    14    15    2
    24    14    30    1
    25    15    16    1
    26    15    20    1
    27    16    17    2
    28    16    31    1
    29    17    32    1
    30    20    21    1
    31    20    25    1
    32    20    33    1
    33    21    22    1
    34    21    34    1
    35    21    35    1
    36    22    23    1
    37    22    36    1
    38    22    37    1
    39    23    24    1
    40    23    38    1
    41    24    25    1
    42    24    39    1
    43    24    40    1
    44    25    41    1
    45    25    42    1
