@<TRIPOS>MOLECULE
lig
  46   49 0 0 0
SMALL
NO_CHARGES


@<TRIPOS>ATOM
      1 C_00        -14.5244  -14.7755  -27.5404 c4      1  lig       0.017238
      2 C_01        -15.1162  -15.5856  -26.5557 c5      1  lig       0.162441
      3 C_02        -14.6126  -13.3870  -27.4243 c6      1  lig      -0.241347
      4 C_03        -15.8507  -14.9969  -25.5184 c7      1  lig      -0.035324
      5 N_04        -14.9512  -16.9828  -26.6050 n0      1  lig      -0.376812
      6 C_05        -15.3071  -12.8055  -26.3678 c8      1  lig       0.253434
      7 C_06        -15.9466  -13.6049  -25.4160 c9      1  lig      -0.269806
      8 C_07        -16.5334  -15.9075  -24.5193 cb      1  lig       0.525795
      9 N_08        -16.1785  -17.2137  -24.6942 ng      1  lig      -0.330424
     10 O_09        -17.3476  -15.5543  -23.6635 o0      1  lig      -0.545231
     11 C_0a        -15.4432  -17.7838  -25.7187 ci      1  lig       0.310947
     12 C_0b        -15.2778  -19.2588  -25.8075 cj      1  lig      -0.016922
     13 C_0c        -14.7706  -19.8268  -26.9878 ck      1  lig      -0.056763
     14 C_0d        -14.6315  -21.2044  -27.1217 cm      1  lig      -0.224394
     15 C_0e        -14.9891  -22.0562  -26.0731 cn      1  lig      -0.017748
     16 C_0f        -15.4751  -21.4979  -24.8861 co      1  lig      -0.140572
     17 C_0g        -15.6240  -20.1168  -24.7536 cq      1  lig      -0.147298
     18 C_0h        -13.7517  -15.3550  -28.7136 cr      1  lig      -0.113371
     19 F_0i        -15.3512  -11.4588  -26.2838 f0      1  lig      -0.178472
     20 C_0j        -14.9424  -23.5841  -26.2418 cs      1  lig       0.014140
     21 C_0k        -13.6275  -24.1410  -26.8461 ct      1  lig       0.019671
     22 C_0l        -13.6510  -25.6466  -27.2708 cw      1  lig       0.001860
     23 N_0m        -14.9478  -25.9976  -27.9976 nr      1  lig      -0.197194
     24 C_0n        -16.1519  -25.5972  -27.1498 cA      1  lig      -0.001052
     25 C_0o        -16.1496  -24.0686  -27.0565 cB      1  lig       0.024717
     26 H_0p        -14.1335  -12.7478  -28.1517 h0      1  lig       0.191990
     27 H_0q        -16.4955  -13.1480  -24.6047 h6      1  lig       0.213907
     28 H_0r        -16.6654  -17.8407  -24.0677 h7      1  lig       0.286484
     29 H_0s        -14.4992  -19.2033  -27.8299 h8      1  lig       0.116251
     30 H_0t        -14.2711  -21.5952  -28.0614 h9      1  lig       0.171360
     31 H_0u        -15.7622  -22.1352  -24.0637 hb      1  lig       0.137477
     32 H_0v        -16.0174  -19.7330  -23.8227 hd      1  lig       0.158120
     33 H_0w        -14.1988  -16.2900  -29.0479 he      1  lig       0.050265
     34 H_0x        -12.7236  -15.5508  -28.4141 hf      1  lig       0.050265
     35 H_0y        -13.7339  -14.6772  -29.5672 hg      1  lig       0.050265
     36 H_0z        -15.0303  -23.9956  -25.2342 hh      1  lig       0.052219
     37 H_10        -13.3518  -23.5408  -27.7063 hi      1  lig       0.036407
     38 H_11        -12.8282  -23.9831  -26.1195 hj      1  lig       0.036407
     39 H_12        -13.6092  -26.3608  -26.4633 hk      1  lig       0.094140
     40 H_13        -12.8978  -25.9512  -27.9876 hl      1  lig       0.094140
     41 H_14        -14.9695  -26.9907  -28.1948 hm      1  lig       0.281851
     42 H_15        -16.0851  -26.0882  -26.1788 hq      1  lig       0.094039
     43 H_16        -17.0202  -25.9948  -27.6634 hr      1  lig       0.094039
     44 H_17        -16.1265  -23.6473  -28.0623 ht      1  lig       0.035505
     45 H_18        -17.0653  -23.7009  -26.6092 hu      1  lig       0.035505
     46 H_19        -14.9828  -25.4999  -28.8775 hv      1  lig       0.281851
@<TRIPOS>BOND
     1     1     2    2
     2     1     3    1
     3     1    18    1
     4     2     4    1
     5     2     5    1
     6     3     6    2
     7     3    26    1
     8     4     7    2
     9     4     8    1
    10     5    11    2
    11     6     7    1
    12     6    19    1
    13     7    27    1
    14     8     9    1
    15     8    10    2
    16     9    11    1
    17     9    28    1
    18    11    12    1
    19    12    13    2
    20    12    17    1
    21    13    14    1
    22    13    29    1
    23    14    15    2
    24    14    30    1
    25    15    16    1
    26    15    20    1
    27    16    17    2
    28    16    31    1
    29    17    32    1
    30    18    33    1
    31    18    34    1
    32    18    35    1
    33    20    21    1
    34    20    25    1
    35    20    36    1
    36    21    22    1
    37    21    37    1
    38    21    38    1
    39    22    23    1
    40    22    39    1
    41    22    40    1
    42    23    24    1
    43    23    41    1
    44    23    46    1
    45    24    25    1
    46    24    42    1
    47    24    43    1
    48    25    44    1
    49    25    45    1
