@<TRIPOS>MOLECULE
lig
  46   49 0 0 0
SMALL
NO_CHARGES


@<TRIPOS>ATOM
      1 C_00        -14.7440  -14.5488  -27.6397 c4      1  lig       0.156745
      2 C_01        -15.2222  -15.4109  -26.6401 c5      1  lig       0.227023
      3 C_02        -14.8591  -13.1692  -27.4748 c6      1  lig      -0.214202
      4 C_03        -15.8582  -14.8736  -25.5086 c7      1  lig      -0.082823
      5 N_04        -15.0518  -16.8036  -26.7731 n0      1  lig      -0.471594
      6 C_05        -15.4628  -12.6413  -26.3347 c8      1  lig       0.225193
      7 C_06        -15.9779  -13.4879  -25.3505 c9      1  lig      -0.260451
      8 C_07        -16.4074  -15.8323  -24.4721 cb      1  lig       0.575989
      9 N_08        -16.1816  -17.1328  -24.8095 ng      1  lig      -0.400201
     10 O_09        -17.0140  -15.5193  -23.4454 o0      1  lig      -0.545621
     11 C_0a        -15.4957  -17.6480  -25.8989 ci      1  lig       0.418284
     12 C_0b        -15.3321  -19.1204  -26.0396 cj      1  lig      -0.032171
     13 C_0c        -15.8398  -19.9770  -25.0510 ck      1  lig      -0.173921
     14 C_0d        -15.6725  -21.3559  -25.1428 cm      1  lig      -0.126800
     15 C_0e        -15.0037  -21.9226  -26.2340 cn      1  lig      -0.017919
     16 C_0f        -14.5169  -21.0751  -27.2353 co      1  lig      -0.205449
     17 C_0g        -14.6698  -19.6915  -27.1368 cq      1  lig      -0.052979
     18 F_0h        -14.1579  -15.0195  -28.7614 f0      1  lig      -0.164042
     19 F_0i        -15.5478  -11.2992  -26.1973 f1      1  lig      -0.162269
     20 C_0j        -14.7101  -23.4149  -26.2936 cr      1  lig       0.000078
     21 C_0k        -15.9534  -24.1911  -26.7469 cs      1  lig       0.046652
     22 C_0l        -15.6342  -25.6857  -26.9262 ct      1  lig      -0.146512
     23 N_0m        -14.5516  -25.8523  -27.9018 nr      1  lig      -0.027991
     24 C_0n        -13.3243  -25.2116  -27.4171 cw      1  lig      -0.166331
     25 C_0o        -13.5505  -23.6979  -27.2575 cA      1  lig       0.044000
     26 C_0p        -14.2997  -27.2875  -28.1026 cB      1  lig      -0.502629
     27 H_0q        -14.4707  -12.5054  -28.2336 h0      1  lig       0.203475
     28 H_0r        -16.4556  -13.0654  -24.4762 h6      1  lig       0.218666
     29 H_0s        -16.6413  -17.7854  -24.1871 h7      1  lig       0.298736
     30 H_0t        -16.3480  -19.5775  -24.1847 h8      1  lig       0.167191
     31 H_0u        -16.0409  -21.9665  -24.3328 h9      1  lig       0.133544
     32 H_0v        -13.9848  -21.4818  -28.0842 hb      1  lig       0.169368
     33 H_0w        -14.2604  -19.0777  -27.9262 hd      1  lig       0.121345
     34 H_0x        -14.4329  -23.7212  -25.2849 he      1  lig       0.063414
     35 H_0y        -16.7537  -24.0684  -26.0171 hf      1  lig       0.030107
     36 H_0z        -16.3288  -23.7780  -27.6831 hg      1  lig       0.030107
     37 H_10        -16.5279  -26.2064  -27.2702 hh      1  lig       0.141389
     38 H_11        -15.3598  -26.1293  -25.9692 hi      1  lig       0.141389
     39 H_12        -12.5120  -25.3822  -28.1236 hj      1  lig       0.147407
     40 H_13        -13.0131  -25.6477  -26.4678 hk      1  lig       0.147407
     41 H_14        -12.6398  -23.2241  -26.8912 hl      1  lig       0.033401
     42 H_15        -13.7573  -23.2503  -28.2296 hm      1  lig       0.033401
     43 H_16        -15.2336  -27.7482  -28.4257 hq      1  lig       0.216172
     44 H_17        -13.9580  -27.7278  -27.1672 hr      1  lig       0.216172
     45 H_18        -13.5429  -27.3868  -28.8818 ht      1  lig       0.216172
     46 H_19        -14.8253  -25.4208  -28.7730 hu      1  lig       0.331078
@<TRIPOS>BOND
     1     1     2    2
     2     1     3    1
     3     1    18    1
     4     2     4    1
     5     2     5    1
     6     3     6    2
     7     3    27    1
     8     4     7    2
     9     4     8    1
    10     5    11    2
    11     6     7    1
    12     6    19    1
    13     7    28    1
    14     8     9    1
    15     8    10    2
    16     9    11    1
    17     9    29    1
    18    11    12    1
    19    12    13    2
    20    12    17    1
    21    13    14    1
    22    13    30    1
    23    14    15    2
    24    14    31    1
    25    15    16    1
    26    15    20    1
    27    16    17    2
    28    16    32    1
    29    17    33    1
    30    20    21    1
    31    20    25    1
    32    20    34    1
    33    21    22    1
    34    21    35    1
    35    21    36    1
    36    22    23    1
    37    22    37    1
    38    22    38    1
    39    23    24    1
    40    23    26    1
    41    23    46    1
    42    24    25    1
    43    24    39    1
    44    24    40    1
    45    25    41    1
    46    25    42    1
    47    26    43    1
    48    26    44    1
    49    26    45    1
