@<TRIPOS>MOLECULE
lig
  48   51 0 0 0
SMALL
NO_CHARGES


@<TRIPOS>ATOM
      1 C_00        -14.4976  -14.8078  -27.6041 c4      1  lig       0.039624
      2 C_01        -15.0860  -15.6146  -26.6121 c5      1  lig       0.242523
      3 C_02        -14.5776  -13.4189  -27.4910 c6      1  lig      -0.256317
      4 C_03        -15.7974  -15.0175  -25.5617 c7      1  lig      -0.144547
      5 N_04        -14.9497  -17.0161  -26.6693 n0      1  lig      -0.494456
      6 C_05        -15.2599  -12.8300  -26.4299 c8      1  lig       0.257031
      7 C_06        -15.8868  -13.6238  -25.4651 c9      1  lig      -0.265421
      8 C_07        -16.4709  -15.9214  -24.5493 cb      1  lig       0.686140
      9 N_08        -16.1516  -17.2326  -24.7414 ng      1  lig      -0.532373
     10 O_09        -17.2464  -15.5613  -23.6634 o0      1  lig      -0.587489
     11 C_0a        -15.4317  -17.8110  -25.7710 ci      1  lig       0.522262
     12 C_0b        -15.2745  -19.2883  -25.8445 cj      1  lig      -0.095055
     13 C_0c        -14.7650  -19.8714  -27.0158 ck      1  lig      -0.157068
     14 C_0d        -14.6263  -21.2503  -27.1285 cm      1  lig      -0.113047
     15 C_0e        -14.9818  -22.0879  -26.0683 cn      1  lig       0.008121
     16 C_0f        -15.4738  -21.5135  -24.8915 co      1  lig      -0.162217
     17 C_0g        -15.6247  -20.1316  -24.7809 cq      1  lig      -0.126047
     18 C_0h        -13.7514  -15.3866  -28.7929 cr      1  lig      -0.153428
     19 F_0i        -15.3111  -11.4823  -26.3542 f0      1  lig      -0.195006
     20 C_0j        -14.9368  -23.6188  -26.2176 cs      1  lig       0.069138
     21 C_0k        -16.1502  -24.1096  -27.0129 ct      1  lig      -0.159065
     22 C_0l        -16.1516  -25.6356  -27.1525 cw      1  lig      -0.011319
     23 N_0m        -14.9512  -26.0113  -28.0249 nr      1  lig      -0.302759
     24 C_0n        -13.6603  -25.6760  -27.2735 cA      1  lig      -0.008132
     25 C_0o        -13.6303  -24.1771  -26.8303 cB      1  lig      -0.183855
     26 C_0p        -14.9970  -27.5130  -28.4020 cC      1  lig      -0.050446
     27 H_0q        -14.1111  -12.7839  -28.2306 h0      1  lig       0.185141
     28 H_0r        -16.4256  -13.1525  -24.6535 h6      1  lig       0.203729
     29 H_0s        -16.6444  -17.8520  -24.1113 h7      1  lig       0.328255
     30 H_0t        -14.4912  -19.2630  -27.8667 h8      1  lig       0.145581
     31 H_0u        -14.2683  -21.6534  -28.0631 h9      1  lig       0.123841
     32 H_0v        -15.7622  -22.1415  -24.0621 hb      1  lig       0.135844
     33 H_0w        -16.0195  -19.7338  -23.8570 hd      1  lig       0.134139
     34 H_0x        -14.1621  -16.3516  -29.0752 he      1  lig       0.058971
     35 H_0y        -12.6990  -15.5158  -28.5462 hf      1  lig       0.058971
     36 H_0z        -13.8228  -14.7393  -29.6666 hg      1  lig       0.058971
     37 H_10        -15.0135  -24.0196  -25.2058 hh      1  lig       0.048234
     38 H_11        -16.1698  -23.6636  -28.0062 hi      1  lig       0.076030
     39 H_12        -17.0502  -23.7611  -26.5261 hj      1  lig       0.076030
     40 H_13        -16.0823  -26.1523  -26.1962 hk      1  lig       0.053333
     41 H_14        -17.0390  -25.9961  -27.6633 hl      1  lig       0.053333
     42 H_15        -13.6015  -26.3876  -26.4633 hm      1  lig       0.053784
     43 H_16        -12.9129  -25.9511  -28.0021 hq      1  lig       0.053784
     44 H_17        -13.3516  -23.5663  -27.6833 hr      1  lig       0.083573
     45 H_18        -12.8254  -24.0344  -26.1062 ht      1  lig       0.083573
     46 H_19        -14.1499  -27.7115  -29.0618 hu      1  lig       0.052697
     47 H_1a        -15.9380  -27.7110  -28.9167 hv      1  lig       0.052697
     48 H_1b        -14.9278  -28.1070  -27.4908 hy      1  lig       0.052697
@<TRIPOS>BOND
     1     1     2    1
     2     1     3    2
     3     1    18    1
     4     2     4    2
     5     2     5    1
     6     3     6    1
     7     3    27    1
     8     4     7    1
     9     4     8    1
    10     5    11    2
    11     6     7    2
    12     6    19    1
    13     7    28    1
    14     8     9    1
    15     8    10    2
    16     9    11    1
    17     9    29    1
    18    11    12    1
    19    12    13    2
    20    12    17    1
    21    13    14    1
    22    13    30    1
    23    14    15    2
    24    14    31    1
    25    15    16    1
    26    15    20    1
    27    16    17    2
    28    16    32    1
    29    17    33    1
    30    18    34    1
    31    18    35    1
    32    18    36    1
    33    20    21    1
    34    20    25    1
    35    20    37    1
    36    21    22    1
    37    21    38    1
    38    21    39    1
    39    22    23    1
    40    22    40    1
    41    22    41    1
    42    23    24    1
    43    23    26    1
    44    24    25    1
    45    24    42    1
    46    24    43    1
    47    25    44    1
    48    25    45    1
    49    26    46    1
    50    26    47    1
    51    26    48    1
