@<TRIPOS>MOLECULE
lig
  51   54 0 0 0
SMALL
NO_CHARGES


@<TRIPOS>ATOM
      1 C_00          6.1831    2.1361   21.3205 c4      1  lig      -0.152073
      2 C_01          6.4375    3.5773   20.8187 c5      1  lig       0.111628
      3 C_02          6.2337    3.6193   19.2862 c6      1  lig       0.343921
      4 O_03          5.1069    3.8798   18.8592 o0      1  lig      -0.516218
      5 N_04          7.2705    3.3667   18.4474 n0      1  lig      -0.123763
      6 C_05          7.1369    3.4327   16.9847 c7      1  lig       0.004234
      7 C_06          7.5463    2.0800   16.3793 c8      1  lig       0.093315
      8 O_07          8.8900    1.8006   16.7466 o1      1  lig      -0.414714
      9 C_08          9.0096    1.6610   18.1550 c9      1  lig       0.105956
     10 C_09          8.6381    2.9899   18.8305 cb      1  lig      -0.031662
     11 N_0a          5.5226    4.5005   21.5098 ng      1  lig      -0.058415
     12 C_0b          4.1849    4.1158   21.9593 ci      1  lig      -0.100033
     13 C_0c          3.4839    5.4498   22.2556 cj      1  lig      -0.092054
     14 C_0d          4.6435    6.3803   22.6023 ck      1  lig       0.123885
     15 N_0e          4.3943    7.7689   22.2663 nr      1  lig      -0.536902
     16 S_0f          4.4097    8.9810   23.4112 s0      1  lig       0.880486
     17 O_0g          3.5444    8.5784   24.4895 o2      1  lig      -0.461807
     18 O_0h          4.1582   10.2115   22.7106 o3      1  lig      -0.508116
     19 C_0i          6.0849    8.9945   23.9930 cm      1  lig       0.035610
     20 C_0j          7.1177    9.6658   23.3262 cn      1  lig      -0.136326
     21 C_0k          8.3575    9.4911   23.9615 co      1  lig      -0.172888
     22 C_0l          8.2701    8.6989   25.1175 cq      1  lig      -0.109392
     23 C_0m          9.4254    8.3244   25.9407 cr      1  lig       0.383331
     24 N_0n          9.3395    7.6013   27.1415 nw      1  lig      -0.165644
     25 N_0o         10.6002    7.3095   27.6861 nA      1  lig      -0.360610
     26 C_0p         11.6469    7.8019   26.8973 cs      1  lig       0.323327
     27 Cl0q         13.3134    7.5849   27.2523 a0      1  lig      -0.030761
     28 S_0r         11.0861    8.6656   25.4831 s1      1  lig      -0.071738
     29 S_0s          6.6322    8.1488   25.4268 s3      1  lig      -0.019522
     30 C_0t          5.7936    5.7792   21.8127 ct      1  lig       0.421198
     31 O_0u          6.8307    6.3914   21.5545 o4      1  lig      -0.578327
     32 H_0v          5.1988    1.7704   21.0252 h0      1  lig       0.046121
     33 H_0w          6.9144    1.4302   20.9294 h6      1  lig       0.046121
     34 H_0x          6.2466    2.0818   22.4077 h7      1  lig       0.046121
     35 H_0y          7.4563    3.8814   21.0584 h8      1  lig       0.056517
     36 H_0z          6.1247    3.6764   16.6578 h9      1  lig       0.069452
     37 H_10          7.7774    4.2241   16.5928 hb      1  lig       0.069452
     38 H_11          6.8840    1.2825   16.7212 hd      1  lig       0.058202
     39 H_12          7.4730    2.1105   15.2914 he      1  lig       0.058202
     40 H_13          8.3720    0.8471   18.5016 hf      1  lig       0.052832
     41 H_14         10.0362    1.3859   18.3974 hg      1  lig       0.052832
     42 H_15          9.3259    3.7712   18.5018 hh      1  lig       0.070346
     43 H_16          8.7936    2.8928   19.9023 hi      1  lig       0.070346
     44 H_17          3.6398    3.5313   21.2163 hj      1  lig       0.084755
     45 H_18          4.2697    3.5141   22.8648 hk      1  lig       0.084755
     46 H_19          2.9584    5.7989   21.3648 hl      1  lig       0.085448
     47 H_1a          2.7525    5.3623   23.0598 hm      1  lig       0.085448
     48 H_1b          4.8505    6.2924   23.6708 hq      1  lig       0.038649
     49 H_1c          4.9581    8.1136   21.4919 hr      1  lig       0.346289
     50 H_1d          6.9821   10.2429   22.4240 ht      1  lig       0.185195
     51 H_1e          9.2669    9.9281   23.5740 hu      1  lig       0.206991
@<TRIPOS>BOND
     1     1     2    1
     2     1    32    1
     3     1    33    1
     4     1    34    1
     5     2     3    1
     6     2    11    1
     7     2    35    1
     8     3     4    2
     9     3     5    1
    10     5    10    1
    11     5     6    1
    12     6     7    1
    13     6    36    1
    14     6    37    1
    15     7     8    1
    16     7    38    1
    17     7    39    1
    18     8     9    1
    19     9    10    1
    20     9    40    1
    21     9    41    1
    22    10    42    1
    23    10    43    1
    24    11    30    1
    25    11    12    1
    26    12    13    1
    27    12    44    1
    28    12    45    1
    29    13    14    1
    30    13    46    1
    31    13    47    1
    32    14    15    1
    33    14    30    1
    34    14    48    1
    35    15    16    1
    36    15    49    1
    37    16    17    2
    38    16    18    2
    39    16    19    1
    40    19    29    1
    41    19    20    2
    42    20    21    1
    43    20    50    1
    44    21    22    2
    45    21    51    1
    46    22    23    1
    47    22    29    1
    48    23    28    1
    49    23    24    2
    50    24    25    1
    51    25    26    2
    52    26    27    1
    53    26    28    1
    54    30    31    2
