@<TRIPOS>MOLECULE
lig
  52   55 0 0 0
SMALL
NO_CHARGES


@<TRIPOS>ATOM
      1 C_00          6.3153    2.1526   21.4068 c4      1  lig      -0.148955
      2 C_01          6.4375    3.5773   20.8187 c5      1  lig       0.105294
      3 C_02          6.2337    3.6193   19.2862 c6      1  lig       0.359390
      4 O_03          5.1069    3.8798   18.8592 o0      1  lig      -0.518891
      5 N_04          7.2705    3.3667   18.4474 n0      1  lig      -0.137187
      6 C_05          7.1369    3.4327   16.9847 c7      1  lig       0.015504
      7 C_06          7.5463    2.0800   16.3793 c8      1  lig       0.098859
      8 O_07          8.8900    1.8006   16.7466 o1      1  lig      -0.418936
      9 C_08          9.0096    1.6610   18.1550 c9      1  lig       0.117536
     10 C_09          8.6381    2.9899   18.8305 cb      1  lig      -0.026393
     11 N_0a          5.5226    4.5005   21.5098 ng      1  lig      -0.058225
     12 C_0b          4.1849    4.1158   21.9593 ci      1  lig      -0.117492
     13 C_0c          3.4839    5.4498   22.2556 cj      1  lig      -0.080875
     14 C_0d          4.6435    6.3803   22.6023 ck      1  lig       0.181684
     15 N_0e          4.3943    7.7689   22.2663 nr      1  lig      -0.536009
     16 S_0f          4.4097    8.9810   23.4112 s0      1  lig       0.854766
     17 O_0g          3.5444    8.5784   24.4895 o2      1  lig      -0.462396
     18 O_0h          4.1582   10.2115   22.7106 o3      1  lig      -0.501644
     19 C_0i          6.0849    8.9945   23.9930 cm      1  lig      -0.050137
     20 C_0j          7.1177    9.6658   23.3262 cn      1  lig       0.061911
     21 N_0k          8.3575    9.4911   23.9615 nw      1  lig      -0.389763
     22 C_0l          8.2701    8.6989   25.1175 co      1  lig       0.315604
     23 C_0m          9.4254    8.3244   25.9407 cq      1  lig      -0.061132
     24 C_0n          9.3395    7.6013   27.1415 cr      1  lig      -0.130118
     25 C_0o         10.6002    7.3095   27.6861 cs      1  lig      -0.150687
     26 C_0p         11.6469    7.8019   26.8973 ct      1  lig       0.002140
     27 Cl0q         13.3364    7.6536   27.1609 a0      1  lig      -0.025948
     28 S_0r         11.0861    8.6656   25.4831 s1      1  lig       0.034838
     29 S_0s          6.6322    8.1488   25.4268 s3      1  lig      -0.058011
     30 C_0t          5.7936    5.7792   21.8127 cw      1  lig       0.397446
     31 O_0u          6.8307    6.3914   21.5545 o4      1  lig      -0.568757
     32 H_0v          5.3141    1.7486   21.2590 h0      1  lig       0.044558
     33 H_0w          7.0056    1.4446   20.9495 h6      1  lig       0.044558
     34 H_0x          6.5215    2.1513   22.4773 h7      1  lig       0.044558
     35 H_0y          7.4571    3.9228   20.9911 h8      1  lig       0.059727
     36 H_0z          6.1335    3.6665   16.6382 h9      1  lig       0.065958
     37 H_10          7.7836    4.2242   16.6033 hb      1  lig       0.065958
     38 H_11          6.8825    1.2827   16.7179 hd      1  lig       0.055893
     39 H_12          7.4724    2.1173   15.2920 he      1  lig       0.055893
     40 H_13          8.3723    0.8500   18.5123 hf      1  lig       0.049847
     41 H_14         10.0383    1.3908   18.3972 hg      1  lig       0.049847
     42 H_15          9.3261    3.7751   18.5150 hh      1  lig       0.067960
     43 H_16          8.7723    2.8942   19.9091 hi      1  lig       0.067960
     44 H_17          3.6241    3.5246   21.2361 hj      1  lig       0.086754
     45 H_18          4.2677    3.5252   22.8727 hk      1  lig       0.086754
     46 H_19          2.9557    5.8001   21.3670 hl      1  lig       0.080288
     47 H_1a          2.7572    5.3630   23.0642 hm      1  lig       0.080288
     48 H_1b          4.8502    6.2930   23.6699 hq      1  lig       0.016423
     49 H_1c          4.9436    8.1201   21.4797 hr      1  lig       0.341272
     50 H_1d          7.0266   10.3000   22.4565 ht      1  lig       0.175192
     51 H_1e          8.4113    7.2965   27.6037 hu      1  lig       0.192116
     52 H_1f         10.7279    6.7673   28.6118 hv      1  lig       0.164780
@<TRIPOS>BOND
     1     1     2    1
     2     1    32    1
     3     1    33    1
     4     1    34    1
     5     2     3    1
     6     2    11    1
     7     2    35    1
     8     3     4    2
     9     3     5    1
    10     5    10    1
    11     5     6    1
    12     6     7    1
    13     6    36    1
    14     6    37    1
    15     7     8    1
    16     7    38    1
    17     7    39    1
    18     8     9    1
    19     9    10    1
    20     9    40    1
    21     9    41    1
    22    10    42    1
    23    10    43    1
    24    11    30    1
    25    11    12    1
    26    12    13    1
    27    12    44    1
    28    12    45    1
    29    13    14    1
    30    13    46    1
    31    13    47    1
    32    14    15    1
    33    14    30    1
    34    14    48    1
    35    15    16    1
    36    15    49    1
    37    16    17    2
    38    16    18    2
    39    16    19    1
    40    19    29    1
    41    19    20    2
    42    20    21    1
    43    20    50    1
    44    21    22    2
    45    22    23    1
    46    22    29    1
    47    23    28    1
    48    23    24    2
    49    24    25    1
    50    24    51    1
    51    25    26    2
    52    25    52    1
    53    26    27    1
    54    26    28    1
    55    30    31    2
