@<TRIPOS>MOLECULE
lig
  53   56 0 0 0
SMALL
NO_CHARGES


@<TRIPOS>ATOM
      1 C_00          6.2625    2.1448   21.3783 c4      1  lig      -0.120266
      2 C_01          6.4375    3.5773   20.8187 c5      1  lig       0.097005
      3 C_02          6.2337    3.6193   19.2862 c6      1  lig       0.338417
      4 O_03          5.1069    3.8798   18.8592 o0      1  lig      -0.510479
      5 N_04          7.2705    3.3667   18.4474 n0      1  lig      -0.117699
      6 C_05          7.1369    3.4327   16.9847 c7      1  lig       0.014478
      7 C_06          7.5463    2.0800   16.3793 c8      1  lig       0.098247
      8 O_07          8.8900    1.8006   16.7466 o1      1  lig      -0.420149
      9 C_08          9.0096    1.6610   18.1550 c9      1  lig       0.116394
     10 C_09          8.6381    2.9899   18.8305 cb      1  lig      -0.029046
     11 N_0a          5.5226    4.5005   21.5098 ng      1  lig      -0.116823
     12 C_0b          4.1849    4.1158   21.9593 ci      1  lig      -0.072325
     13 C_0c          3.4839    5.4498   22.2556 cj      1  lig      -0.138127
     14 C_0d          4.6435    6.3803   22.6023 ck      1  lig       0.061232
     15 N_0e          4.3943    7.7689   22.2663 nr      1  lig      -0.537539
     16 S_0f          4.4097    8.9810   23.4112 s0      1  lig       0.924123
     17 O_0g          3.5444    8.5784   24.4895 o2      1  lig      -0.489478
     18 O_0h          4.1582   10.2115   22.7106 o3      1  lig      -0.514075
     19 C_0i          6.0849    8.9945   23.9930 cm      1  lig       0.027260
     20 C_0j          7.1177    9.6658   23.3262 cn      1  lig      -0.119122
     21 C_0k          8.3575    9.4911   23.9615 co      1  lig      -0.265448
     22 C_0l          8.2701    8.6989   25.1175 cq      1  lig       0.242423
     23 C_0m          9.4254    8.3244   25.9407 cr      1  lig      -0.111857
     24 C_0n          9.3395    7.6013   27.1415 cs      1  lig      -0.045337
     25 C_0o         10.6002    7.3095   27.6861 ct      1  lig      -0.160875
     26 C_0p         11.6469    7.8019   26.8973 cw      1  lig      -0.024088
     27 Cl0q         13.3358    7.6547   27.1677 a0      1  lig      -0.026088
     28 S_0r         11.0861    8.6656   25.4831 s1      1  lig       0.021851
     29 O_0s          6.6322    8.1488   25.4268 o4      1  lig      -0.177205
     30 C_0t          5.7936    5.7792   21.8127 cA      1  lig       0.512096
     31 O_0u          6.8307    6.3914   21.5545 o5      1  lig      -0.588715
     32 H_0v          5.2631    1.7579   21.1795 h0      1  lig       0.038740
     33 H_0w          6.9632    1.4334   20.9409 h6      1  lig       0.038740
     34 H_0x          6.4193    2.1214   22.4566 h7      1  lig       0.038740
     35 H_0y          7.4585    3.9073   21.0111 h8      1  lig       0.058230
     36 H_0z          6.1013    3.6647   16.7336 h9      1  lig       0.065076
     37 H_10          7.7376    4.2237   16.5333 hb      1  lig       0.065076
     38 H_11          6.8987    1.2850   16.7516 hd      1  lig       0.055907
     39 H_12          7.4427    2.0925   15.2928 he      1  lig       0.055907
     40 H_13          8.3423    0.8664   18.4895 hf      1  lig       0.050151
     41 H_14         10.0244    1.3591   18.4195 hg      1  lig       0.050151
     42 H_15          9.3959    3.7223   18.5652 hh      1  lig       0.067812
     43 H_16          8.6892    2.8809   19.9147 hi      1  lig       0.067812
     44 H_17          3.6306    3.5268   21.2289 hj      1  lig       0.081686
     45 H_18          4.2658    3.5237   22.8717 hk      1  lig       0.081686
     46 H_19          2.9581    5.8010   21.3661 hl      1  lig       0.101993
     47 H_1a          2.7527    5.3636   23.0600 hm      1  lig       0.101993
     48 H_1b          4.8614    6.2890   23.6664 hq      1  lig       0.057478
     49 H_1c          4.9420    8.1126   21.4752 hr      1  lig       0.342803
     50 H_1d          6.9939   10.2728   22.4428 ht      1  lig       0.189485
     51 H_1e          9.3167    9.8934   23.6659 hu      1  lig       0.207757
     52 H_1f          8.4154    7.2968   27.6115 hv      1  lig       0.143495
     53 H_1g         10.7298    6.7679   28.6119 hy      1  lig       0.170497
@<TRIPOS>BOND
     1     1     2    1
     2     1    32    1
     3     1    33    1
     4     1    34    1
     5     2     3    1
     6     2    11    1
     7     2    35    1
     8     3     4    2
     9     3     5    1
    10     5    10    1
    11     5     6    1
    12     6     7    1
    13     6    36    1
    14     6    37    1
    15     7     8    1
    16     7    38    1
    17     7    39    1
    18     8     9    1
    19     9    10    1
    20     9    40    1
    21     9    41    1
    22    10    42    1
    23    10    43    1
    24    11    30    1
    25    11    12    1
    26    12    13    1
    27    12    44    1
    28    12    45    1
    29    13    14    1
    30    13    46    1
    31    13    47    1
    32    14    15    1
    33    14    30    1
    34    14    48    1
    35    15    16    1
    36    15    49    1
    37    16    17    2
    38    16    18    2
    39    16    19    1
    40    19    29    1
    41    19    20    2
    42    20    21    1
    43    20    50    1
    44    21    22    2
    45    21    51    1
    46    22    23    1
    47    22    29    1
    48    23    28    1
    49    23    24    2
    50    24    25    1
    51    24    52    1
    52    25    26    2
    53    25    53    1
    54    26    27    1
    55    26    28    1
    56    30    31    2
