@<TRIPOS>MOLECULE
lig
  52   55 0 0 0
SMALL
NO_CHARGES


@<TRIPOS>ATOM
      1 C_00          6.2193    2.1423   21.3516 c4      1  lig      -0.257813
      2 C_01          6.4375    3.5773   20.8187 c5      1  lig       0.099358
      3 C_02          6.2337    3.6193   19.2862 c6      1  lig       0.412159
      4 O_03          5.1069    3.8798   18.8592 o0      1  lig      -0.533816
      5 N_04          7.2705    3.3667   18.4474 n0      1  lig      -0.179102
      6 C_05          7.1369    3.4327   16.9847 c7      1  lig       0.005232
      7 C_06          7.5463    2.0800   16.3793 c8      1  lig       0.102963
      8 O_07          8.8900    1.8006   16.7466 o1      1  lig      -0.426496
      9 C_08          9.0096    1.6610   18.1550 c9      1  lig       0.131297
     10 C_09          8.6381    2.9899   18.8305 cb      1  lig      -0.046858
     11 N_0a          5.5226    4.5005   21.5098 ng      1  lig      -0.102819
     12 C_0b          4.1849    4.1158   21.9593 ci      1  lig      -0.163909
     13 C_0c          3.4839    5.4498   22.2556 cj      1  lig      -0.094006
     14 C_0d          4.6435    6.3803   22.6023 ck      1  lig       0.091087
     15 N_0e          4.3943    7.7689   22.2663 nr      1  lig      -0.548384
     16 S_0f          4.4097    8.9810   23.4112 s0      1  lig       0.912736
     17 O_0g          3.5444    8.5784   24.4895 o2      1  lig      -0.466656
     18 O_0h          4.1582   10.2115   22.7106 o3      1  lig      -0.512228
     19 C_0i          6.0849    8.9945   23.9930 cm      1  lig      -0.017110
     20 C_0j          7.1177    9.6658   23.3262 cn      1  lig      -0.109798
     21 C_0k          8.3575    9.4911   23.9615 co      1  lig      -0.197157
     22 C_0l          8.2701    8.6989   25.1175 cq      1  lig      -0.011672
     23 C_0m          9.4254    8.3244   25.9407 cr      1  lig       0.279476
     24 N_0n          9.3395    7.6013   27.1415 nw      1  lig      -0.321980
     25 C_0o         10.6002    7.3095   27.6861 cs      1  lig       0.000788
     26 C_0p         11.6469    7.8019   26.8973 ct      1  lig      -0.040928
     27 Cl0q         13.3377    7.6532   27.1610 a0      1  lig      -0.026574
     28 S_0r         11.0861    8.6656   25.4831 s1      1  lig      -0.002725
     29 S_0s          6.6322    8.1488   25.4268 s3      1  lig      -0.021476
     30 C_0t          5.7936    5.7792   21.8127 cw      1  lig       0.404135
     31 O_0u          6.8307    6.3914   21.5545 o4      1  lig      -0.545849
     32 H_0v          5.2181    1.7754   21.1226 h0      1  lig       0.080297
     33 H_0w          6.9221    1.4289   20.9237 h6      1  lig       0.080297
     34 H_0x          6.3491    2.1058   22.4337 h7      1  lig       0.080297
     35 H_0y          7.4608    3.8870   21.0339 h8      1  lig       0.085148
     36 H_0z          6.1356    3.6734   16.6365 h9      1  lig       0.068618
     37 H_10          7.7860    4.2214   16.6014 hb      1  lig       0.068618
     38 H_11          6.8834    1.2825   16.7189 hd      1  lig       0.055883
     39 H_12          7.4726    2.1159   15.2919 he      1  lig       0.055883
     40 H_13          8.3715    0.8505   18.5112 hf      1  lig       0.047805
     41 H_14         10.0377    1.3898   18.3978 hg      1  lig       0.047805
     42 H_15          9.3270    3.7746   18.5148 hh      1  lig       0.076891
     43 H_16          8.7709    2.8943   19.9094 hi      1  lig       0.076891
     44 H_17          3.6349    3.5231   21.2283 hj      1  lig       0.112757
     45 H_18          4.2682    3.5245   22.8713 hk      1  lig       0.112757
     46 H_19          2.9562    5.8019   21.3670 hl      1  lig       0.090520
     47 H_1a          2.7568    5.3644   23.0641 hm      1  lig       0.090520
     48 H_1b          4.8605    6.2860   23.6674 hq      1  lig       0.080018
     49 H_1c          4.9646    8.1043   21.4894 hr      1  lig       0.338886
     50 H_1d          6.9778   10.2654   22.4385 ht      1  lig       0.185260
     51 H_1e          9.2720    9.9344   23.5938 hu      1  lig       0.194289
     52 H_1f         10.6683    6.7622   28.6161 hv      1  lig       0.158685
@<TRIPOS>BOND
     1     1     2    1
     2     1    32    1
     3     1    33    1
     4     1    34    1
     5     2     3    1
     6     2    11    1
     7     2    35    1
     8     3     4    2
     9     3     5    1
    10     5    10    1
    11     5     6    1
    12     6     7    1
    13     6    36    1
    14     6    37    1
    15     7     8    1
    16     7    38    1
    17     7    39    1
    18     8     9    1
    19     9    10    1
    20     9    40    1
    21     9    41    1
    22    10    42    1
    23    10    43    1
    24    11    30    1
    25    11    12    1
    26    12    13    1
    27    12    44    1
    28    12    45    1
    29    13    14    1
    30    13    46    1
    31    13    47    1
    32    14    15    1
    33    14    30    1
    34    14    48    1
    35    15    16    1
    36    15    49    1
    37    16    17    2
    38    16    18    2
    39    16    19    1
    40    19    29    1
    41    19    20    2
    42    20    21    1
    43    20    50    1
    44    21    22    2
    45    21    51    1
    46    22    23    1
    47    22    29    1
    48    23    28    1
    49    23    24    2
    50    24    25    1
    51    25    26    2
    52    25    52    1
    53    26    27    1
    54    26    28    1
    55    30    31    2
