@<TRIPOS>MOLECULE
lig
  63   65 0 0 0
SMALL
NO_CHARGES


@<TRIPOS>ATOM
      1 C_00         24.4727   31.0016   48.0036 c4      1  lig      -0.281272
      2 C_01         24.5300   32.4421   47.4625 c5      1  lig      -0.082521
      3 N_02         25.8471   33.1263   47.9174 n0      1  lig      -0.019327
      4 C_03         26.5582   33.8236   46.7267 c6      1  lig      -0.278413
      5 C_04         27.9680   34.3135   47.0983 c7      1  lig      -0.091109
      6 C_05         25.7037   34.0574   49.1505 c8      1  lig      -0.133361
      7 C_06         25.0196   33.3694   50.3406 c9      1  lig      -0.000002
      8 C_07         25.1207   34.2204   51.6096 cb      1  lig      -0.039572
      9 O_08         24.2089   33.7070   52.5694 o0      1  lig      -0.406253
     10 C_09         24.4274   33.8425   53.8818 ci      1  lig       0.752523
     11 O_0a         25.4468   34.3262   54.3758 o1      1  lig      -0.508426
     12 N_0b         23.3143   33.3489   54.5431 ng      1  lig      -0.515223
     13 C_0c         23.1199   33.0979   55.9090 cj      1  lig       0.058926
     14 C_0d         24.1414   33.1258   56.8692 ck      1  lig      -0.060154
     15 C_0e         23.8696   32.7659   58.1897 cm      1  lig      -0.249676
     16 C_0f         22.5879   32.3615   58.5569 cn      1  lig      -0.085329
     17 C_0g         21.5635   32.3202   57.6077 co      1  lig      -0.019405
     18 C_0h         20.1562   31.8850   58.0078 cq      1  lig      -0.098478
     19 N_0i         19.8644   30.4717   57.6936 nr      1  lig      -0.090125
     20 N_0j         19.3890   30.2278   56.4402 nw      1  lig      -0.236841
     21 C_0k         19.0442   29.0918   55.9519 cr      1  lig       0.177350
     22 C_0l         19.2131   27.7463   56.6825 cs      1  lig      -0.079506
     23 S_0m         19.8987   27.7561   58.3757 s0      1  lig      -0.143874
     24 C_0n         20.1827   29.5317   58.6864 ct      1  lig       0.459254
     25 O_0o         20.6467   29.8222   59.7923 o2      1  lig      -0.438997
     26 C_0p         18.4155   29.0391   54.5996 cw      1  lig      -0.059337
     27 C_0q         17.9456   30.2139   53.9817 cA      1  lig      -0.087990
     28 C_0r         17.3441   30.1691   52.7261 cB      1  lig      -0.003188
     29 C_0s         17.2051   28.9511   52.0696 cC      1  lig      -0.051387
     30 Cl0t         16.4736   28.8975   50.5073 a0      1  lig      -0.054917
     31 C_0u         17.6526   27.7758   52.6640 cD      1  lig      -0.077475
     32 C_0v         18.2471   27.8189   53.9222 cE      1  lig      -0.056192
     33 C_0w         21.8327   32.7061   56.2913 cF      1  lig      -0.079774
     34 H_0x         23.5968   30.4811   47.6104 h0      1  lig       0.099596
     35 H_0y         24.4033   30.9609   49.0891 h6      1  lig       0.099596
     36 H_0z         25.3532   30.4260   47.7088 h7      1  lig       0.099596
     37 H_10         24.5177   32.4252   46.3705 h8      1  lig       0.126925
     38 H_11         23.6976   33.0693   47.7875 h9      1  lig       0.126925
     39 H_12         26.6196   33.0663   45.9418 hb      1  lig       0.172836
     40 H_13         25.9002   34.6318   46.3996 hd      1  lig       0.172836
     41 H_14         28.5062   34.6317   46.2047 he      1  lig       0.078277
     42 H_15         28.5571   33.5279   47.5728 hf      1  lig       0.078277
     43 H_16         27.9415   35.1731   47.7690 hg      1  lig       0.078277
     44 H_17         26.7217   34.3261   49.4276 hh      1  lig       0.121989
     45 H_18         25.1693   34.9484   48.8141 hi      1  lig       0.121989
     46 H_19         23.9675   33.2044   50.1122 hj      1  lig       0.032226
     47 H_1a         25.4667   32.3939   50.5322 hk      1  lig       0.032226
     48 H_1b         26.1498   34.2162   51.9755 hl      1  lig       0.135290
     49 H_1c         24.8575   35.2572   51.3965 hm      1  lig       0.135290
     50 H_1d         22.5395   33.1075   53.9443 hq      1  lig       0.340987
     51 H_1e         25.1537   33.4086   56.6205 hr      1  lig       0.152784
     52 H_1f         24.6629   32.7886   58.9236 ht      1  lig       0.181344
     53 H_1g         22.3957   32.0656   59.5762 hu      1  lig       0.153301
     54 H_1h         19.9788   32.1176   59.0609 hv      1  lig       0.123900
     55 H_1i         19.4347   32.5167   57.4888 hy      1  lig       0.123900
     56 H_1j         18.2473   27.2434   56.7524 hz      1  lig       0.120159
     57 H_1k         19.8772   27.1004   56.1068 hA      1  lig       0.120159
     58 H_1l         18.0354   31.1729   54.4712 hB      1  lig       0.037430
     59 H_1m         16.9904   31.0770   52.2615 hC      1  lig       0.112821
     60 H_1n         17.5495   26.8304   52.1502 hD      1  lig       0.155899
     61 H_1o         18.5791   26.8796   54.3375 hE      1  lig       0.115095
     62 H_1p         21.0378   32.6610   55.5594 hF      1  lig       0.126976
     63 H_1q         26.4658   32.3740   48.2108 hG      1  lig       0.303165
@<TRIPOS>BOND
     1     1     2    1
     2     1    34    1
     3     1    35    1
     4     1    36    1
     5     2     3    1
     6     2    37    1
     7     2    38    1
     8     3     4    1
     9     3     6    1
    10     3    63    1
    11     4     5    1
    12     4    39    1
    13     4    40    1
    14     5    41    1
    15     5    42    1
    16     5    43    1
    17     6     7    1
    18     6    44    1
    19     6    45    1
    20     7     8    1
    21     7    46    1
    22     7    47    1
    23     8     9    1
    24     8    48    1
    25     8    49    1
    26     9    10    1
    27    10    11    2
    28    10    12    1
    29    12    13    1
    30    12    50    1
    31    13    14    2
    32    13    33    1
    33    14    15    1
    34    14    51    1
    35    15    16    2
    36    15    52    1
    37    16    17    1
    38    16    53    1
    39    17    18    1
    40    17    33    2
    41    18    19    1
    42    18    54    1
    43    18    55    1
    44    19    20    1
    45    19    24    1
    46    20    21    2
    47    21    22    1
    48    21    26    1
    49    22    23    1
    50    22    56    1
    51    22    57    1
    52    23    24    1
    53    24    25    2
    54    26    27    2
    55    26    32    1
    56    27    28    1
    57    27    58    1
    58    28    29    2
    59    28    59    1
    60    29    30    1
    61    29    31    1
    62    31    32    2
    63    31    60    1
    64    32    61    1
    65    33    62    1
