@<TRIPOS>MOLECULE
lig
  43   46 0 0 0
SMALL
NO_CHARGES


@<TRIPOS>ATOM
      1 C_00         23.7416   33.4339   50.5656 c4      1  lig      -0.154966
      2 C_01         23.9419   33.5262   52.0577 c5      1  lig      -0.003329
      3 C_02         25.0472   33.9262   52.8109 c6      1  lig      -0.029562
      4 N_03         24.9413   33.8882   54.1251 n0      1  lig      -0.417914
      5 C_04         23.7703   33.4371   54.5091 c7      1  lig       0.283934
      6 S_05         22.6918   33.0941   53.1909 s0      1  lig      -0.089754
      7 C_06         23.3991   33.1258   55.9322 c8      1  lig      -0.047303
      8 C_07         24.3940   33.1223   56.9191 c9      1  lig      -0.018506
      9 C_08         24.1066   32.7375   58.2267 cb      1  lig      -0.230078
     10 C_09         22.8110   32.3634   58.5715 ci      1  lig      -0.146167
     11 C_0a         21.7948   32.3802   57.6162 cj      1  lig       0.065214
     12 C_0b         20.3655   32.0248   58.0262 ck      1  lig      -0.086187
     13 N_0c         20.0019   30.6204   57.7683 ng      1  lig       0.040520
     14 N_0d         19.4474   30.3566   56.5137 nr      1  lig      -0.297097
     15 C_0e         19.0638   29.1726   56.1515 cm      1  lig       0.273279
     16 C_0f         19.2956   28.1043   57.1128 cn      1  lig      -0.123766
     17 C_0g         19.8470   28.3480   58.3259 co      1  lig      -0.274894
     18 C_0h         20.2312   29.6832   58.7547 cq      1  lig       0.578199
     19 O_0i         20.6849   29.9063   59.8819 o0      1  lig      -0.590038
     20 C_0j         18.4133   28.9105   54.8422 cr      1  lig      -0.103394
     21 C_0k         17.9351   29.9898   54.0754 cs      1  lig      -0.086992
     22 C_0l         17.2559   29.7777   52.8782 ct      1  lig       0.087828
     23 F_0m         16.7949   30.8353   52.1707 f0      1  lig      -0.103917
     24 C_0n         17.0400   28.4827   52.4202 cw      1  lig      -0.159068
     25 C_0o         17.5120   27.4001   53.1582 cA      1  lig       0.211332
     26 F_0p         17.2881   26.1399   52.7214 f1      1  lig      -0.179479
     27 C_0q         18.2026   27.6096   54.3522 cB      1  lig      -0.178676
     28 C_0r         22.0909   32.7664   56.3023 cC      1  lig      -0.104781
     29 H_0s         23.6844   32.3960   50.2370 h0      1  lig       0.072274
     30 H_0t         24.5565   33.9022   50.0124 h6      1  lig       0.072274
     31 H_0u         22.8173   33.9215   50.2539 h7      1  lig       0.072274
     32 H_0v         25.9799   34.2599   52.3772 h8      1  lig       0.153926
     33 H_0w         25.4112   33.3943   56.6782 h9      1  lig       0.101200
     34 H_0x         24.8920   32.7270   58.9682 hb      1  lig       0.165725
     35 H_0y         22.5972   32.0572   59.5827 hd      1  lig       0.164962
     36 H_0z         20.2132   32.2909   59.0739 he      1  lig       0.093877
     37 H_10         19.6776   32.6821   57.4901 hf      1  lig       0.093877
     38 H_11         19.0342   27.0804   56.8932 hg      1  lig       0.158926
     39 H_12         20.0092   27.5307   59.0138 hh      1  lig       0.180376
     40 H_13         18.0667   31.0101   54.4070 hi      1  lig       0.139703
     41 H_14         16.4995   28.3179   51.4996 hj      1  lig       0.162736
     42 H_15         18.5540   26.7358   54.8749 hk      1  lig       0.154592
     43 H_16         21.2972   32.7657   55.5704 hl      1  lig       0.098840
@<TRIPOS>BOND
     1     1     2    1
     2     1    29    1
     3     1    30    1
     4     1    31    1
     5     2     3    2
     6     2     6    1
     7     3     4    1
     8     3    32    1
     9     4     5    2
    10     5     6    1
    11     5     7    1
    12     7     8    2
    13     7    28    1
    14     8     9    1
    15     8    33    1
    16     9    10    2
    17     9    34    1
    18    10    11    1
    19    10    35    1
    20    11    12    1
    21    11    28    2
    22    12    13    1
    23    12    36    1
    24    12    37    1
    25    13    14    1
    26    13    18    1
    27    14    15    2
    28    15    16    1
    29    15    20    1
    30    16    17    2
    31    16    38    1
    32    17    18    1
    33    17    39    1
    34    18    19    2
    35    20    21    2
    36    20    27    1
    37    21    22    1
    38    21    40    1
    39    22    23    1
    40    22    24    2
    41    24    25    1
    42    24    41    1
    43    25    26    1
    44    25    27    2
    45    27    42    1
    46    28    43    1
