@<TRIPOS>MOLECULE
lig
  45   47 0 0 0
SMALL
NO_CHARGES


@<TRIPOS>ATOM
      1 C_00         25.0527   33.1189   50.3652 c4      1  lig      -0.087735
      2 C_01         25.2375   33.9564   51.6334 c5      1  lig       0.199160
      3 O_02         24.2400   33.5921   52.5819 o0      1  lig      -0.476311
      4 C_03         24.4282   33.8098   53.8972 c6      1  lig       0.903712
      5 O_04         25.4390   34.3263   54.3763 o1      1  lig      -0.618897
      6 N_05         23.3098   33.3499   54.5803 n0      1  lig      -0.533746
      7 C_06         23.1429   33.1003   55.9525 c7      1  lig       0.108462
      8 C_07         24.1938   33.1211   56.8848 c8      1  lig      -0.077941
      9 C_08         23.9667   32.7324   58.2058 c9      1  lig      -0.267226
     10 C_09         22.6972   32.3172   58.6060 cb      1  lig      -0.104163
     11 C_0a         21.6398   32.2993   57.6938 ci      1  lig       0.029096
     12 C_0b         20.2464   31.8624   58.1398 cj      1  lig      -0.085943
     13 N_0c         19.9426   30.4543   57.8241 ng      1  lig       0.091526
     14 N_0d         19.4473   30.2067   56.5407 nr      1  lig      -0.379135
     15 C_0e         19.1631   29.0149   56.1226 ck      1  lig       0.391217
     16 C_0f         19.4188   27.9275   57.0571 cm      1  lig      -0.210069
     17 C_0g         19.9112   28.1569   58.2948 cn      1  lig      -0.228285
     18 C_0h         20.2164   29.4915   58.7783 co      1  lig       0.545147
     19 O_0i         20.6462   29.6922   59.9173 o2      1  lig      -0.586754
     20 C_0j         18.5969   28.7490   54.7746 cq      1  lig      -0.129529
     21 C_0k         18.6632   29.7346   53.7733 cr      1  lig      -0.136597
     22 C_0l         18.1274   29.5090   52.5051 cs      1  lig       0.201795
     23 F_0m         18.1820   30.4830   51.5669 f0      1  lig      -0.173046
     24 C_0n         17.5325   28.2870   52.2075 ct      1  lig      -0.193443
     25 C_0o         17.4615   27.2957   53.1803 cw      1  lig       0.191720
     26 F_0p         16.8723   26.1122   52.8989 f1      1  lig      -0.170063
     27 C_0q         17.9871   27.5251   54.4501 cA      1  lig      -0.174524
     28 C_0r         21.8673   32.7053   56.3737 cB      1  lig      -0.171218
     29 H_0s         25.8043   33.3794   49.6188 h0      1  lig       0.034276
     30 H_0t         24.0682   33.2847   49.9236 h6      1  lig       0.034275
     31 H_0u         25.1529   32.0538   50.5802 h7      1  lig       0.034275
     32 H_0v         26.2436   33.7973   52.0292 h8      1  lig       0.039005
     33 H_0w         25.1414   35.0188   51.4060 h9      1  lig       0.039005
     34 H_0x         22.5298   33.0978   53.9939 hb      1  lig       0.319804
     35 H_0y         25.1966   33.4091   56.6086 hd      1  lig       0.161765
     36 H_0z         24.7839   32.7419   58.9129 he      1  lig       0.172626
     37 H_10         22.5404   31.9926   59.6252 hf      1  lig       0.150643
     38 H_11         20.1165   32.0758   59.2041 hg      1  lig       0.092680
     39 H_12         19.5061   32.5002   57.6515 hh      1  lig       0.092680
     40 H_13         19.2516   26.8958   56.7834 hi      1  lig       0.177823
     41 H_14         20.1112   27.3275   58.9566 hj      1  lig       0.174312
     42 H_15         19.1246   30.6921   53.9680 hk      1  lig       0.145279
     43 H_16         17.1261   28.1055   51.2210 hl      1  lig       0.177050
     44 H_17         17.8873   26.7273   55.1702 hm      1  lig       0.153370
     45 H_18         21.0500   32.6764   55.6678 hq      1  lig       0.143922
@<TRIPOS>BOND
     1     1     2    1
     2     1    29    1
     3     1    30    1
     4     1    31    1
     5     2     3    1
     6     2    32    1
     7     2    33    1
     8     3     4    1
     9     4     5    2
    10     4     6    1
    11     6     7    1
    12     6    34    1
    13     7     8    2
    14     7    28    1
    15     8     9    1
    16     8    35    1
    17     9    10    2
    18     9    36    1
    19    10    11    1
    20    10    37    1
    21    11    12    1
    22    11    28    2
    23    12    13    1
    24    12    38    1
    25    12    39    1
    26    13    14    1
    27    13    18    1
    28    14    15    2
    29    15    16    1
    30    15    20    1
    31    16    17    2
    32    16    40    1
    33    17    18    1
    34    17    41    1
    35    18    19    2
    36    20    21    2
    37    20    27    1
    38    21    22    1
    39    21    42    1
    40    22    23    1
    41    22    24    2
    42    24    25    1
    43    24    43    1
    44    25    26    1
    45    25    27    2
    46    27    44    1
    47    28    45    1
