@<TRIPOS>MOLECULE
lig
  46   49 0 0 0
SMALL
NO_CHARGES


@<TRIPOS>ATOM
      1 C_00         24.6440   33.7566   50.5299 c4      1  lig      -0.274718
      2 C_01         24.1955   33.6079   51.9712 c5      1  lig       0.029038
      3 C_02         22.9269   33.1279   52.2874 c6      1  lig      -0.085218
      4 C_03         22.5559   32.9819   53.6250 c7      1  lig      -0.313517
      5 C_04         23.4682   33.3170   54.6402 c8      1  lig       0.446352
      6 N_05         24.7033   33.8055   54.3290 n0      1  lig      -0.540981
      7 C_06         25.0501   33.9349   53.0237 c9      1  lig       0.130501
      8 C_07         23.1953   33.0558   56.0977 cb      1  lig      -0.077317
      9 C_08         24.2278   33.1076   57.0532 ci      1  lig      -0.065500
     10 C_09         24.0151   32.7150   58.3740 cj      1  lig      -0.219047
     11 C_0a         22.7600   32.2678   58.7755 ck      1  lig      -0.136570
     12 C_0b         21.7005   32.2521   57.8672 cm      1  lig       0.073701
     13 C_0c         20.3107   31.8110   58.3229 cn      1  lig      -0.086505
     14 N_0d         19.9717   30.4315   57.9305 ng      1  lig       0.005955
     15 N_0e         19.4379   30.2705   56.6488 nr      1  lig      -0.249155
     16 C_0f         19.0713   29.1173   56.1871 co      1  lig       0.256605
     17 C_0g         19.3100   27.9722   57.0534 cq      1  lig      -0.140409
     18 C_0h         19.8477   28.1160   58.2858 cr      1  lig      -0.261961
     19 C_0i         20.2087   29.4111   58.8309 cs      1  lig       0.590642
     20 O_0j         20.6466   29.5360   59.9757 o0      1  lig      -0.590394
     21 C_0k         18.4362   28.9570   54.8556 ct      1  lig      -0.099941
     22 C_0l         17.9522   30.0911   54.1748 cw      1  lig      -0.121204
     23 C_0m         17.2982   29.9692   52.9506 cA      1  lig       0.178959
     24 F_0n         16.8364   31.0762   52.3231 f0      1  lig      -0.168266
     25 C_0o         17.1097   28.7125   52.3844 cB      1  lig      -0.189126
     26 C_0p         17.5833   27.5775   53.0396 cC      1  lig       0.189888
     27 F_0q         17.3892   26.3557   52.4989 f1      1  lig      -0.172175
     28 C_0r         18.2471   27.6988   54.2596 cD      1  lig      -0.163379
     29 C_0s         21.9191   32.6673   56.5497 cE      1  lig      -0.160054
     30 H_0t         25.1758   32.8594   50.2079 h0      1  lig       0.086994
     31 H_0u         25.3161   34.6083   50.4144 h6      1  lig       0.086994
     32 H_0v         23.7921   33.9111   49.8659 h7      1  lig       0.086994
     33 H_0w         22.2301   32.8651   51.5047 h8      1  lig       0.147501
     34 H_0x         21.5777   32.5756   53.8360 h9      1  lig       0.145410
     35 H_0y         26.0426   34.3121   52.8220 hb      1  lig       0.107209
     36 H_0z         25.2268   33.4061   56.7732 hd      1  lig       0.126403
     37 H_10         24.8331   32.7337   59.0783 he      1  lig       0.158005
     38 H_11         22.6120   31.9260   59.7898 hf      1  lig       0.154178
     39 H_12         20.2103   31.9631   59.4002 hg      1  lig       0.092742
     40 H_13         19.5697   32.4933   57.8958 hh      1  lig       0.092742
     41 H_14         19.0659   26.9644   56.7514 hi      1  lig       0.162022
     42 H_15         20.0179   27.2423   58.8982 hj      1  lig       0.176142
     43 H_16         18.0622   31.0791   54.5954 hk      1  lig       0.130793
     44 H_17         16.5959   28.6119   51.4403 hl      1  lig       0.178347
     45 H_18         18.5991   26.7871   54.7204 hm      1  lig       0.156697
     46 H_19         21.0819   32.6371   55.8707 hq      1  lig       0.124623
@<TRIPOS>BOND
     1     1     2    1
     2     1    30    1
     3     1    31    1
     4     1    32    1
     5     2     3    2
     6     2     7    1
     7     3     4    1
     8     3    33    1
     9     4     5    2
    10     4    34    1
    11     5     6    1
    12     5     8    1
    13     6     7    2
    14     7    35    1
    15     8     9    2
    16     8    29    1
    17     9    10    1
    18     9    36    1
    19    10    11    2
    20    10    37    1
    21    11    12    1
    22    11    38    1
    23    12    13    1
    24    12    29    2
    25    13    14    1
    26    13    39    1
    27    13    40    1
    28    14    15    1
    29    14    19    1
    30    15    16    2
    31    16    17    1
    32    16    21    1
    33    17    18    2
    34    17    41    1
    35    18    19    1
    36    18    42    1
    37    19    20    2
    38    21    22    2
    39    21    28    1
    40    22    23    1
    41    22    43    1
    42    23    24    1
    43    23    25    2
    44    25    26    1
    45    25    44    1
    46    26    27    1
    47    26    28    2
    48    28    45    1
    49    29    46    1
