@<TRIPOS>MOLECULE
lig
  42   45 0 0 0
SMALL
NO_CHARGES


@<TRIPOS>ATOM
      1 C_00         25.5431   34.0167   52.0099 c4      1  lig      -0.383900
      2 C_01         24.4529   33.6951   52.9986 c5      1  lig       0.762627
      3 N_02         23.2283   33.4386   52.6013 n0      1  lig      -0.522722
      4 O_03         22.5648   33.1682   53.7948 o0      1  lig      -0.103186
      5 C_04         23.5069   33.3110   54.7624 c6      1  lig       0.608992
      6 N_05         24.6793   33.6555   54.2948 ng      1  lig      -0.713226
      7 C_06         23.1484   32.9710   56.1722 c7      1  lig      -0.139206
      8 C_07         24.1344   32.9719   57.1665 c8      1  lig      -0.026964
      9 C_08         23.8296   32.5724   58.4640 c9      1  lig      -0.221089
     10 C_09         22.5336   32.1634   58.7765 cb      1  lig      -0.127267
     11 C_0a         21.5356   32.1524   57.8009 ci      1  lig       0.098825
     12 C_0b         20.1190   31.7033   58.1537 cj      1  lig      -0.119220
     13 N_0c         19.8547   30.2890   57.8266 nr      1  lig       0.045847
     14 N_0d         19.3939   30.0363   56.5265 nw      1  lig      -0.323803
     15 C_0e         19.1443   28.8364   56.1040 ck      1  lig       0.351304
     16 C_0f         19.3793   27.7544   57.0439 cm      1  lig      -0.149949
     17 C_0g         19.8517   27.9868   58.2887 cn      1  lig      -0.280527
     18 C_0h         20.1318   29.3242   58.7773 co      1  lig       0.589026
     19 O_0i         20.5581   29.5291   59.9176 o1      1  lig      -0.597323
     20 C_0j         18.6470   28.5427   54.7422 cq      1  lig      -0.155031
     21 C_0k         18.9989   29.3821   53.6736 cr      1  lig      -0.120170
     22 C_0l         18.5680   29.1037   52.3782 cs      1  lig       0.214465
     23 F_0m         18.9207   29.9232   51.3580 f0      1  lig      -0.169680
     24 C_0n         17.7745   27.9883   52.1293 ct      1  lig      -0.207350
     25 C_0o         17.4160   27.1433   53.1780 cw      1  lig       0.198208
     26 F_0p         16.6527   26.0569   52.9396 f1      1  lig      -0.172872
     27 C_0q         17.8499   27.4178   54.4732 cA      1  lig      -0.165023
     28 C_0r         21.8443   32.5788   56.5052 cB      1  lig      -0.105189
     29 H_0s         25.3046   34.9123   51.4367 h0      1  lig       0.117666
     30 H_0t         25.6690   33.2106   51.2865 h6      1  lig       0.117666
     31 H_0u         26.5130   34.1784   52.4818 h7      1  lig       0.117666
     32 H_0v         25.1478   33.2695   56.9375 h8      1  lig       0.128953
     33 H_0w         24.5978   32.5697   59.2236 h9      1  lig       0.162014
     34 H_0x         22.3124   31.8481   59.7866 hb      1  lig       0.172434
     35 H_0y         19.9234   31.9198   59.2077 hd      1  lig       0.103096
     36 H_0z         19.3994   32.3301   57.6206 he      1  lig       0.103096
     37 H_10         19.2155   26.7259   56.7598 hf      1  lig       0.166028
     38 H_11         20.0350   27.1557   58.9509 hg      1  lig       0.183020
     39 H_12         19.6206   30.2537   53.8274 hh      1  lig       0.139532
     40 H_13         17.4481   27.7728   51.1249 hi      1  lig       0.180639
     41 H_14         17.5620   26.7298   55.2564 hj      1  lig       0.151548
     42 H_15         21.0727   32.5628   55.7483 hk      1  lig       0.091045
@<TRIPOS>BOND
     1     1     2    1
     2     1    29    1
     3     1    30    1
     4     1    31    1
     5     2     3    2
     6     2     6    1
     7     3     4    1
     8     4     5    1
     9     5     6    2
    10     5     7    1
    11     7     8    2
    12     7    28    1
    13     8     9    1
    14     8    32    1
    15     9    10    2
    16     9    33    1
    17    10    11    1
    18    10    34    1
    19    11    12    1
    20    11    28    2
    21    12    13    1
    22    12    35    1
    23    12    36    1
    24    13    14    1
    25    13    18    1
    26    14    15    2
    27    15    16    1
    28    15    20    1
    29    16    17    2
    30    16    37    1
    31    17    18    1
    32    17    38    1
    33    18    19    2
    34    20    21    2
    35    20    27    1
    36    21    22    1
    37    21    39    1
    38    22    23    1
    39    22    24    2
    40    24    25    1
    41    24    40    1
    42    25    26    1
    43    25    27    2
    44    27    41    1
    45    28    42    1
