@<TRIPOS>MOLECULE
lig
  45   48 0 0 0
SMALL
NO_CHARGES


@<TRIPOS>ATOM
      1 C_00         24.9268   34.0387   50.7958 c4      1  lig      -0.210113
      2 C_01         24.3292   33.7968   52.1682 c5      1  lig       0.522180
      3 C_02         23.0499   33.2693   52.3344 c6      1  lig      -0.295146
      4 C_03         22.6036   33.0410   53.6347 c7      1  lig      -0.186336
      5 C_04         23.4538   33.3556   54.7057 c8      1  lig       0.438093
      6 N_05         24.6754   33.9192   54.4700 n0      1  lig      -0.247337
      7 N_06         25.1181   34.1276   53.2212 ng      1  lig      -0.407982
      8 C_07         23.1239   33.0265   56.1337 c9      1  lig      -0.187847
      9 C_08         24.1214   33.0302   57.1236 cb      1  lig      -0.030954
     10 C_09         23.8473   32.6424   58.4326 ci      1  lig      -0.202332
     11 C_0a         22.5704   32.2174   58.7761 cj      1  lig      -0.141748
     12 C_0b         21.5526   32.2075   57.8229 ck      1  lig       0.077252
     13 C_0c         20.1497   31.7465   58.2043 cm      1  lig      -0.126923
     14 N_0d         19.8854   30.3397   57.8543 nr      1  lig       0.051867
     15 N_0e         19.4128   30.1090   56.5605 nw      1  lig      -0.291505
     16 C_0f         19.1571   28.9176   56.1180 cn      1  lig       0.272084
     17 C_0g         19.4059   27.8195   57.0375 co      1  lig      -0.126308
     18 C_0h         19.8870   28.0345   58.2822 cq      1  lig      -0.270199
     19 C_0i         20.1852   29.3636   58.7850 cr      1  lig       0.566619
     20 O_0j         20.6460   29.5449   59.9141 o0      1  lig      -0.583309
     21 C_0k         18.6463   28.6600   54.7513 cs      1  lig      -0.108156
     22 C_0l         17.9441   27.4851   54.4303 ct      1  lig      -0.173542
     23 C_0m         17.4733   27.2606   53.1364 cw      1  lig       0.203505
     24 F_0n         16.7942   26.1288   52.8531 f0      1  lig      -0.173589
     25 C_0o         17.7086   28.2024   52.1378 cA      1  lig      -0.172327
     26 C_0p         18.4025   29.3727   52.4339 cB      1  lig       0.126447
     27 F_0q         18.6243   30.2907   51.4676 f1      1  lig      -0.143939
     28 C_0r         18.8686   29.6005   53.7292 cC      1  lig      -0.085284
     29 C_0s         21.8292   32.6350   56.5192 cD      1  lig      -0.077539
     30 H_0t         25.0400   35.1100   50.6219 h0      1  lig       0.058572
     31 H_0u         24.2962   33.6273   50.0037 h6      1  lig       0.058572
     32 H_0v         25.9117   33.5709   50.7171 h7      1  lig       0.058572
     33 H_0w         22.4207   33.0324   51.4858 h8      1  lig       0.151533
     34 H_0x         21.6343   32.5922   53.7757 h9      1  lig       0.178847
     35 H_0y         25.1348   33.3176   56.8881 hb      1  lig       0.104064
     36 H_0z         24.6327   32.6583   59.1741 hd      1  lig       0.156810
     37 H_10         22.3648   31.8897   59.7856 he      1  lig       0.155468
     38 H_11         19.9758   31.9310   59.2706 hf      1  lig       0.104486
     39 H_12         19.4176   32.3850   57.7063 hg      1  lig       0.104486
     40 H_13         19.2305   26.7935   56.7551 hh      1  lig       0.159717
     41 H_14         20.0775   27.1977   58.9349 hi      1  lig       0.181348
     42 H_15         17.7396   26.7272   55.1728 hj      1  lig       0.157687
     43 H_16         17.3583   28.0202   51.1328 hk      1  lig       0.173740
     44 H_17         19.4080   30.5144   53.9261 hl      1  lig       0.110806
     45 H_18         21.0233   32.6247   55.8023 hm      1  lig       0.069660
@<TRIPOS>BOND
     1     1     2    1
     2     1    30    1
     3     1    31    1
     4     1    32    1
     5     2     3    2
     6     2     7    1
     7     3     4    1
     8     3    33    1
     9     4     5    2
    10     4    34    1
    11     5     6    1
    12     5     8    1
    13     6     7    2
    14     8     9    2
    15     8    29    1
    16     9    10    1
    17     9    35    1
    18    10    11    2
    19    10    36    1
    20    11    12    1
    21    11    37    1
    22    12    13    1
    23    12    29    2
    24    13    14    1
    25    13    38    1
    26    13    39    1
    27    14    15    1
    28    14    19    1
    29    15    16    2
    30    16    17    1
    31    16    21    1
    32    17    18    2
    33    17    40    1
    34    18    19    1
    35    18    41    1
    36    19    20    2
    37    21    22    2
    38    21    28    1
    39    22    23    1
    40    22    42    1
    41    23    24    1
    42    23    25    2
    43    25    26    1
    44    25    43    1
    45    26    27    1
    46    26    28    2
    47    28    44    1
    48    29    45    1
