@<TRIPOS>MOLECULE
lig
  65   68 0 0 0
SMALL
NO_CHARGES


@<TRIPOS>ATOM
      1 C_00         15.8252   31.3725   51.3891 c4      1  lig      -0.003797
      2 O_01         16.6336   31.3985   52.5609 o0      1  lig      -0.335308
      3 C_02         17.1600   30.2110   53.0332 c5      1  lig       0.272521
      4 C_03         17.0411   28.9713   52.3865 c6      1  lig      -0.140121
      5 C_04         17.5894   27.8236   52.9554 c7      1  lig      -0.246402
      6 C_05         18.2507   27.8961   54.1798 c8      1  lig      -0.150027
      7 C_06         18.3948   29.1224   54.8472 c9      1  lig      -0.000713
      8 C_07         17.8475   30.2695   54.2458 cb      1  lig      -0.187717
      9 C_08         19.0486   29.2328   56.1755 ci      1  lig       0.209329
     10 N_09         19.4293   30.3667   56.6722 n0      1  lig      -0.277788
     11 N_0a         19.9686   30.4824   57.9555 ng      1  lig       0.038687
     12 C_0b         20.3331   31.8461   58.3786 cj      1  lig      -0.163369
     13 C_0c         21.7206   32.2720   57.9089 ck      1  lig       0.072395
     14 C_0d         22.7963   32.2649   58.7941 cm      1  lig      -0.131181
     15 C_0e         24.0522   32.6951   58.3785 cn      1  lig      -0.205014
     16 C_0f         24.2472   33.0977   57.0600 co      1  lig      -0.044510
     17 C_0g         23.1958   33.0793   56.1281 cq      1  lig      -0.211718
     18 C_0h         21.9239   32.6937   56.5928 cr      1  lig      -0.043886
     19 C_0i         23.4330   33.3796   54.6769 cs      1  lig       0.709274
     20 N_0j         24.6802   33.7794   54.2962 nr      1  lig      -0.542801
     21 C_0k         24.9031   33.9133   52.9625 ct      1  lig       0.107887
     22 C_0l         23.9128   33.6533   51.9985 cw      1  lig       0.150967
     23 O_0m         24.0590   33.7624   50.6310 o1      1  lig      -0.372013
     24 C_0n         25.3682   33.8936   50.0961 cA      1  lig       0.164285
     25 C_0o         25.2906   34.1837   48.5896 cB      1  lig      -0.103131
     26 C_0p         24.4426   33.2044   47.7586 cC      1  lig      -0.249291
     27 N_0q         25.0473   31.7801   47.8070 nw      1  lig      -0.026427
     28 C_0r         24.2954   30.8488   48.7809 cD      1  lig      -0.309312
     29 C_0s         25.1638   31.1328   46.4103 cE      1  lig      -0.265100
     30 C_0t         22.6661   33.2759   52.4938 cF      1  lig       0.093936
     31 N_0u         22.4069   33.1346   53.8163 nA      1  lig      -0.481884
     32 C_0v         20.2003   29.4356   58.8239 cG      1  lig       0.599256
     33 O_0w         20.6470   29.5261   59.9699 o2      1  lig      -0.597259
     34 C_0x         19.8279   28.1599   58.2375 cH      1  lig      -0.290984
     35 C_0y         19.2824   28.0585   57.0032 cI      1  lig      -0.110638
     36 H_0z         15.4607   32.3773   51.1753 h0      1  lig       0.072006
     37 H_10         14.9536   30.7288   51.5196 h6      1  lig       0.072006
     38 H_11         16.3925   31.0382   50.5195 h7      1  lig       0.072006
     39 H_12         16.5238   28.8765   51.4445 h8      1  lig       0.124318
     40 H_13         17.5001   26.8726   52.4500 h9      1  lig       0.181626
     41 H_14         18.6505   26.9777   54.5828 hb      1  lig       0.132806
     42 H_15         17.9226   31.2309   54.7333 hd      1  lig       0.123002
     43 H_16         20.2542   31.9744   59.4611 he      1  lig       0.125262
     44 H_17         19.5997   32.5483   57.9772 hf      1  lig       0.125262
     45 H_18         22.6550   31.9262   59.8103 hg      1  lig       0.180439
     46 H_19         24.8822   32.7074   59.0703 hh      1  lig       0.160495
     47 H_1a         25.2435   33.3963   56.7680 hi      1  lig       0.107885
     48 H_1b         21.0817   32.6749   55.9159 hj      1  lig       0.056982
     49 H_1c         25.9011   34.2229   52.6925 hk      1  lig       0.120928
     50 H_1d         25.9545   32.9947   50.2961 hl      1  lig       0.036572
     51 H_1e         25.8725   34.7261   50.5758 hm      1  lig       0.036572
     52 H_1f         26.3021   34.2342   48.1833 hq      1  lig       0.099752
     53 H_1g         24.8764   35.1844   48.4581 hr      1  lig       0.099752
     54 H_1h         24.4351   33.5175   46.7129 ht      1  lig       0.186251
     55 H_1i         23.4051   33.1450   48.0939 hu      1  lig       0.186251
     56 H_1j         24.3216   31.2958   49.7746 hv      1  lig       0.164015
     57 H_1k         24.8287   29.9003   48.7760 hy      1  lig       0.164015
     58 H_1l         23.2708   30.7319   48.4224 hz      1  lig       0.164015
     59 H_1m         25.7776   31.7918   45.7935 hA      1  lig       0.160148
     60 H_1n         24.1577   31.0240   46.0012 hB      1  lig       0.160148
     61 H_1o         25.6512   30.1646   46.5354 hC      1  lig       0.160148
     62 H_1p         21.8477   33.0829   51.8173 hD      1  lig       0.135002
     63 H_1q         19.9866   27.2680   58.8255 hE      1  lig       0.184385
     64 H_1r         19.0200   27.0669   56.6661 hF      1  lig       0.159602
     65 H_1s         25.9970   31.8662   48.1636 hG      1  lig       0.320203
@<TRIPOS>BOND
     1     1     2    1
     2     1    36    1
     3     1    37    1
     4     1    38    1
     5     2     3    1
     6     3     4    2
     7     3     8    1
     8     4     5    1
     9     4    39    1
    10     5     6    2
    11     5    40    1
    12     6     7    1
    13     6    41    1
    14     7     8    2
    15     7     9    1
    16     8    42    1
    17     9    10    2
    18     9    35    1
    19    10    11    1
    20    11    12    1
    21    11    32    1
    22    12    13    1
    23    12    43    1
    24    12    44    1
    25    13    14    2
    26    13    18    1
    27    14    15    1
    28    14    45    1
    29    15    16    2
    30    15    46    1
    31    16    17    1
    32    16    47    1
    33    17    18    2
    34    17    19    1
    35    18    48    1
    36    19    20    2
    37    19    31    1
    38    20    21    1
    39    21    22    2
    40    21    49    1
    41    22    23    1
    42    22    30    1
    43    23    24    1
    44    24    25    1
    45    24    50    1
    46    24    51    1
    47    25    26    1
    48    25    52    1
    49    25    53    1
    50    26    27    1
    51    26    54    1
    52    26    55    1
    53    27    28    1
    54    27    29    1
    55    27    65    1
    56    28    56    1
    57    28    57    1
    58    28    58    1
    59    29    59    1
    60    29    60    1
    61    29    61    1
    62    30    31    2
    63    30    62    1
    64    32    33    2
    65    32    34    1
    66    34    35    2
    67    34    63    1
    68    35    64    1
