@<TRIPOS>MOLECULE
lig
  43   46 0 0 0
SMALL
NO_CHARGES


@<TRIPOS>ATOM
      1 C_00         25.8234   33.9368   52.0874 c4      1  lig      -0.132411
      2 C_01         24.5773   33.5529   52.8371 c5      1  lig       0.313128
      3 N_02         24.5033   33.5215   54.1481 n0      1  lig      -0.453084
      4 C_03         23.3141   33.1507   54.6047 c6      1  lig       0.253065
      5 C_04         22.3783   32.9204   53.5909 c7      1  lig      -0.333248
      6 S_05         23.1081   33.1260   52.0358 s0      1  lig      -0.080870
      7 C_06         23.0782   32.9428   56.0753 c8      1  lig      -0.037603
      8 C_07         24.1214   33.0156   57.0120 c9      1  lig      -0.006913
      9 C_08         23.9060   32.6758   58.3464 cb      1  lig      -0.254978
     10 C_09         22.6470   32.2458   58.7660 ci      1  lig      -0.156112
     11 C_0a         21.5865   32.1977   57.8576 cj      1  lig       0.084806
     12 C_0b         20.1983   31.7432   58.2997 ck      1  lig      -0.123697
     13 N_0c         19.9103   30.3472   57.9267 ng      1  lig       0.046826
     14 N_0d         19.4457   30.1367   56.6240 nr      1  lig      -0.295757
     15 C_0e         19.1955   28.9527   56.1602 cm      1  lig       0.285262
     16 C_0f         19.4462   27.8387   57.0634 cn      1  lig      -0.124476
     17 C_0g         19.9156   28.0338   58.3163 co      1  lig      -0.288081
     18 C_0h         20.1990   29.3563   58.8423 cq      1  lig       0.585480
     19 O_0i         20.6466   29.5307   59.9757 o0      1  lig      -0.591529
     20 C_0j         18.6782   28.7120   54.7928 cr      1  lig      -0.110601
     21 C_0k         18.8686   29.6755   53.7873 cs      1  lig      -0.096787
     22 C_0l         18.4018   29.4581   52.4919 ct      1  lig       0.137152
     23 F_0m         18.5947   30.3979   51.5403 f0      1  lig      -0.137545
     24 C_0n         17.7355   28.2754   52.1779 cw      1  lig      -0.178990
     25 C_0o         17.5376   27.3094   53.1591 cA      1  lig       0.203693
     26 F_0p         16.8840   26.1648   52.8599 f1      1  lig      -0.175628
     27 C_0q         18.0078   27.5260   54.4534 cB      1  lig      -0.169737
     28 C_0r         21.8052   32.5682   56.5284 cC      1  lig      -0.109735
     29 H_0s         25.6127   34.7585   51.4074 h0      1  lig       0.066832
     30 H_0t         26.1895   33.1263   51.4574 h6      1  lig       0.066832
     31 H_0u         26.6381   34.2399   52.7438 h7      1  lig       0.066832
     32 H_0v         21.3476   32.6089   53.6669 h8      1  lig       0.273445
     33 H_0w         25.1167   33.3023   56.7016 h9      1  lig       0.096178
     34 H_0x         24.7283   32.7185   59.0468 hb      1  lig       0.169225
     35 H_0y         22.4998   31.9283   59.7886 hd      1  lig       0.163339
     36 H_0z         20.0766   31.9170   59.3695 he      1  lig       0.105084
     37 H_10         19.4477   32.3927   57.8405 hf      1  lig       0.105084
     38 H_11         19.2890   26.8170   56.7517 hg      1  lig       0.161560
     39 H_12         20.1073   27.1837   58.9532 hh      1  lig       0.183054
     40 H_13         19.3903   30.5998   53.9954 hi      1  lig       0.117007
     41 H_14         17.3745   28.1070   51.1755 hj      1  lig       0.171942
     42 H_15         17.8281   26.7513   55.1826 hk      1  lig       0.150219
     43 H_16         20.9769   32.5013   55.8382 hl      1  lig       0.051737
@<TRIPOS>BOND
     1     1     2    1
     2     1    29    1
     3     1    30    1
     4     1    31    1
     5     2     3    2
     6     2     6    1
     7     3     4    1
     8     4     5    2
     9     4     7    1
    10     5     6    1
    11     5    32    1
    12     7     8    2
    13     7    28    1
    14     8     9    1
    15     8    33    1
    16     9    10    2
    17     9    34    1
    18    10    11    1
    19    10    35    1
    20    11    12    1
    21    11    28    2
    22    12    13    1
    23    12    36    1
    24    12    37    1
    25    13    14    1
    26    13    18    1
    27    14    15    2
    28    15    16    1
    29    15    20    1
    30    16    17    2
    31    16    38    1
    32    17    18    1
    33    17    39    1
    34    18    19    2
    35    20    21    2
    36    20    27    1
    37    21    22    1
    38    21    40    1
    39    22    23    1
    40    22    24    2
    41    24    25    1
    42    24    41    1
    43    25    26    1
    44    25    27    2
    45    27    42    1
    46    28    43    1
