@<TRIPOS>MOLECULE
lig
  71   73 0 0 0
SMALL
NO_CHARGES


@<TRIPOS>ATOM
      1 C_00         24.3934   31.0600   48.1947 c4      1  lig      -0.121957
      2 C_01         24.5318   32.4351   47.5178 c5      1  lig      -0.070074
      3 N_02         25.8474   33.1258   47.9679 n0      1  lig      -0.039877
      4 C_03         26.5614   33.7965   46.7640 c6      1  lig      -0.096844
      5 C_04         27.9647   34.3057   47.1323 c7      1  lig      -0.097776
      6 C_05         25.7058   34.0801   49.1798 c8      1  lig      -0.211205
      7 C_06         24.9918   33.4384   50.3755 c9      1  lig      -0.022642
      8 C_07         25.0659   34.3430   51.6089 cb      1  lig       0.005792
      9 O_08         24.1175   33.9028   52.5724 o0      1  lig      -0.456227
     10 C_09         24.3859   33.9251   53.8856 ci      1  lig       0.832380
     11 O_0a         25.4468   34.3252   54.3755 o1      1  lig      -0.574334
     12 N_0b         23.2712   33.4382   54.5535 ng      1  lig      -0.443277
     13 C_0c         23.1060   33.1249   55.9113 cj      1  lig       0.030201
     14 C_0d         24.1478   33.1259   56.8531 ck      1  lig      -0.063231
     15 C_0e         23.9046   32.7376   58.1696 cm      1  lig      -0.269745
     16 C_0f         22.6221   32.3505   58.5593 cn      1  lig      -0.067640
     17 C_0g         21.5763   32.3408   57.6345 co      1  lig       0.054341
     18 C_0h         20.1645   31.9343   58.0656 cq      1  lig      -0.111133
     19 N_0i         19.8549   30.5223   57.7688 nr      1  lig      -0.072484
     20 N_0j         19.5510   30.2568   56.4647 nw      1  lig      -0.277491
     21 C_0k         19.2595   29.1097   55.9735 cr      1  lig       0.274136
     22 C_0l         19.1563   27.8215   56.8125 cs      1  lig      -0.081815
     23 S_0m         20.1073   27.8033   58.3756 s0      1  lig      -0.171511
     24 C_0n         20.2026   29.5875   58.7616 ct      1  lig       0.515776
     25 O_0o         20.6464   29.8843   59.8760 o2      1  lig      -0.478473
     26 C_0p         18.9915   28.9833   54.5231 cw      1  lig      -0.101964
     27 C_0q         19.6332   29.8252   53.6061 cA      1  lig      -0.292391
     28 C_0r         19.4012   29.7031   52.2393 cB      1  lig      -0.155772
     29 C_0s         18.5163   28.7296   51.7479 cC      1  lig       0.255468
     30 O_0t         18.2446   28.5625   50.4000 o3      1  lig      -0.329873
     31 C_0u         19.1055   29.1560   49.4367 cD      1  lig       0.009136
     32 C_0v         17.8607   27.8802   52.6511 cE      1  lig       0.177615
     33 O_0w         16.9971   26.9398   52.1194 o4      1  lig      -0.324577
     34 C_0x         16.4627   25.9229   52.9609 cF      1  lig      -0.015314
     35 C_0y         18.1083   28.0139   54.0302 cG      1  lig      -0.110876
     36 C_0z         21.8257   32.7275   56.3134 cH      1  lig      -0.149363
     37 H_10         23.5731   30.4984   47.7502 h0      1  lig       0.068855
     38 H_11         24.1797   31.1335   49.2598 h6      1  lig       0.068855
     39 H_12         25.3026   30.4604   48.0820 h7      1  lig       0.068855
     40 H_13         24.5871   32.2964   46.4354 h8      1  lig       0.120988
     41 H_14         23.7064   33.1249   47.7224 h9      1  lig       0.120988
     42 H_15         26.6370   33.0231   45.9988 hb      1  lig       0.118886
     43 H_16         25.9021   34.5928   46.4106 hd      1  lig       0.118886
     44 H_17         28.5048   34.6092   46.2369 he      1  lig       0.069047
     45 H_18         28.5529   33.5272   47.6204 hf      1  lig       0.069047
     46 H_19         27.9289   35.1715   47.7906 hg      1  lig       0.069047
     47 H_1a         26.7289   34.3265   49.4695 hh      1  lig       0.138629
     48 H_1b         25.1999   34.9802   48.8207 hi      1  lig       0.138629
     49 H_1c         23.9440   33.2598   50.1306 hj      1  lig       0.070401
     50 H_1d         25.4418   32.4741   50.6173 hk      1  lig       0.070401
     51 H_1e         26.0877   34.3355   51.9943 hl      1  lig       0.114920
     52 H_1f         24.8319   35.3723   51.3382 hm      1  lig       0.114920
     53 H_1g         22.4685   33.2708   53.9673 hq      1  lig       0.323150
     54 H_1h         25.1545   33.4074   56.5882 hr      1  lig       0.135901
     55 H_1i         24.7114   32.7470   58.8868 ht      1  lig       0.179202
     56 H_1j         22.4449   32.0462   59.5784 hu      1  lig       0.143434
     57 H_1k         20.0051   32.1810   59.1196 hv      1  lig       0.098778
     58 H_1l         19.4401   32.5650   57.5477 hy      1  lig       0.098778
     59 H_1m         19.5363   26.9752   56.2387 hz      1  lig       0.112041
     60 H_1n         18.1120   27.6206   57.0577 hA      1  lig       0.112041
     61 H_1o         20.3227   30.5828   53.9471 hB      1  lig       0.185727
     62 H_1p         19.9142   30.3790   51.5732 hC      1  lig       0.135168
     63 H_1q         18.8121   28.8229   48.4420 hD      1  lig       0.070122
     64 H_1r         20.1452   28.8590   49.5904 hE      1  lig       0.070122
     65 H_1s         19.0323   30.2450   49.4516 hF      1  lig       0.070122
     66 H_1t         15.8022   26.3401   53.7205 hG      1  lig       0.085405
     67 H_1u         17.2616   25.3568   53.4427 hH      1  lig       0.085405
     68 H_1v         15.8754   25.2286   52.3598 hI      1  lig       0.085405
     69 H_1w         17.6031   27.3567   54.7209 hJ      1  lig       0.086749
     70 H_1x         21.0158   32.7074   55.5985 hK      1  lig       0.126753
     71 H_1y         26.4631   32.3739   48.2748 hL      1  lig       0.307364
@<TRIPOS>BOND
     1     1     2    1
     2     1    37    1
     3     1    38    1
     4     1    39    1
     5     2     3    1
     6     2    40    1
     7     2    41    1
     8     3     4    1
     9     3     6    1
    10     3    71    1
    11     4     5    1
    12     4    42    1
    13     4    43    1
    14     5    44    1
    15     5    45    1
    16     5    46    1
    17     6     7    1
    18     6    47    1
    19     6    48    1
    20     7     8    1
    21     7    49    1
    22     7    50    1
    23     8     9    1
    24     8    51    1
    25     8    52    1
    26     9    10    1
    27    10    11    2
    28    10    12    1
    29    12    13    1
    30    12    53    1
    31    13    14    2
    32    13    36    1
    33    14    15    1
    34    14    54    1
    35    15    16    2
    36    15    55    1
    37    16    17    1
    38    16    56    1
    39    17    18    1
    40    17    36    2
    41    18    19    1
    42    18    57    1
    43    18    58    1
    44    19    20    1
    45    19    24    1
    46    20    21    2
    47    21    22    1
    48    21    26    1
    49    22    23    1
    50    22    59    1
    51    22    60    1
    52    23    24    1
    53    24    25    2
    54    26    27    2
    55    26    35    1
    56    27    28    1
    57    27    61    1
    58    28    29    2
    59    28    62    1
    60    29    30    1
    61    29    32    1
    62    30    31    1
    63    31    63    1
    64    31    64    1
    65    31    65    1
    66    32    33    1
    67    32    35    2
    68    33    34    1
    69    34    66    1
    70    34    67    1
    71    34    68    1
    72    35    69    1
    73    36    70    1
