@<TRIPOS>MOLECULE
lig
  45   48 0 0 0
SMALL
NO_CHARGES


@<TRIPOS>ATOM
      1 C_00         24.6590   34.1762   50.5924 c4      1  lig      -0.301045
      2 C_01         24.2746   33.9253   52.0374 c5      1  lig       0.018573
      3 C_02         25.1740   34.1478   53.0785 c6      1  lig       0.147852
      4 N_03         24.8532   33.9262   54.3784 n0      1  lig      -0.575183
      5 C_04         23.5930   33.4702   54.6400 c7      1  lig       0.697152
      6 N_05         22.6476   33.2371   53.6867 ng      1  lig      -0.441455
      7 C_06         23.0058   33.4672   52.3948 c8      1  lig       0.078132
      8 C_07         23.2543   33.1190   56.0657 c9      1  lig      -0.223598
      9 C_08         24.2471   33.1094   57.0597 cb      1  lig      -0.025974
     10 C_09         23.9733   32.6953   58.3618 ci      1  lig      -0.207055
     11 C_0a         22.6941   32.2720   58.7023 cj      1  lig      -0.163074
     12 C_0b         21.6732   32.2882   57.7495 ck      1  lig       0.077634
     13 C_0c         20.2574   31.8714   58.1483 cm      1  lig      -0.088263
     14 N_0d         19.9320   30.4722   57.8106 nr      1  lig       0.015035
     15 N_0e         19.3972   30.2588   56.5379 nw      1  lig      -0.273442
     16 C_0f         19.0692   29.0834   56.0994 cn      1  lig       0.266221
     17 C_0g         19.3270   27.9712   57.0049 co      1  lig      -0.110394
     18 C_0h         19.8506   28.1673   58.2382 cq      1  lig      -0.298280
     19 C_0i         20.1920   29.4850   58.7426 cr      1  lig       0.603360
     20 O_0j         20.6445   29.6519   59.8792 o0      1  lig      -0.595084
     21 C_0k         18.4743   28.8707   54.7531 cs      1  lig      -0.105880
     22 C_0l         18.0358   27.6132   54.3055 ct      1  lig      -0.189134
     23 C_0m         17.4494   27.4603   53.0498 cw      1  lig       0.213410
     24 F_0n         17.0192   26.2455   52.6483 f0      1  lig      -0.178972
     25 C_0o         17.2973   28.5621   52.2108 cA      1  lig      -0.187781
     26 C_0p         17.7324   29.8153   52.6298 cB      1  lig       0.144210
     27 F_0q         17.5797   30.8932   51.8228 f1      1  lig      -0.152967
     28 C_0r         18.3167   29.9673   53.8856 cC      1  lig      -0.074033
     29 C_0s         21.9564   32.7247   56.4484 cD      1  lig      -0.039109
     30 H_0t         24.1190   33.5086   49.9195 h0      1  lig       0.093445
     31 H_0u         25.7260   34.0116   50.4396 h6      1  lig       0.093445
     32 H_0v         24.4303   35.2047   50.3131 h7      1  lig       0.093445
     33 H_0w         26.1753   34.5025   52.8776 h8      1  lig       0.122038
     34 H_0x         22.2484   33.2806   51.6443 h9      1  lig       0.122588
     35 H_0y         25.2609   33.4009   56.8192 hb      1  lig       0.105922
     36 H_0z         24.7626   32.6937   59.1005 hd      1  lig       0.153754
     37 H_10         22.4923   31.9266   59.7076 he      1  lig       0.165355
     38 H_11         20.0950   32.0730   59.2091 hf      1  lig       0.091747
     39 H_12         19.5442   32.5305   57.6458 hg      1  lig       0.091747
     40 H_13         19.1172   26.9479   56.7312 hh      1  lig       0.156307
     41 H_14         20.0395   27.3195   58.8782 hi      1  lig       0.182816
     42 H_15         18.1211   26.7275   54.9114 hj      1  lig       0.156708
     43 H_16         16.8419   28.4425   51.2385 hk      1  lig       0.172576
     44 H_17         18.6407   30.9590   54.1723 hl      1  lig       0.105674
     45 H_18         21.1592   32.7249   55.7179 hm      1  lig       0.061577
@<TRIPOS>BOND
     1     1     2    1
     2     1    30    1
     3     1    31    1
     4     1    32    1
     5     2     3    2
     6     2     7    1
     7     3     4    1
     8     3    33    1
     9     4     5    2
    10     5     6    1
    11     5     8    1
    12     6     7    2
    13     7    34    1
    14     8     9    2
    15     8    29    1
    16     9    10    1
    17     9    35    1
    18    10    11    2
    19    10    36    1
    20    11    12    1
    21    11    37    1
    22    12    13    1
    23    12    29    2
    24    13    14    1
    25    13    38    1
    26    13    39    1
    27    14    15    1
    28    14    19    1
    29    15    16    2
    30    16    17    1
    31    16    21    1
    32    17    18    2
    33    17    40    1
    34    18    19    1
    35    18    41    1
    36    19    20    2
    37    21    22    2
    38    21    28    1
    39    22    23    1
    40    22    42    1
    41    23    24    1
    42    23    25    2
    43    25    26    1
    44    25    43    1
    45    26    27    1
    46    26    28    2
    47    28    44    1
    48    29    45    1
