@<TRIPOS>MOLECULE
lig
  57   59 0 0 0
SMALL
NO_CHARGES


@<TRIPOS>ATOM
      1 C_00         24.1307   31.2988   47.8294 c4      1  lig      -0.131192
      2 N_01         25.0469   32.2887   48.5804 n0      1  lig      -0.026243
      3 C_02         25.1226   33.6645   47.8845 c5      1  lig      -0.110989
      4 C_03         24.7621   32.3673   50.0986 c6      1  lig      -0.067886
      5 C_04         23.4022   33.0226   50.4217 c7      1  lig      -0.041350
      6 C_05         23.1284   33.0780   51.9260 c8      1  lig       0.190049
      7 O_06         24.1634   33.8263   52.5697 o0      1  lig      -0.474961
      8 C_07         24.3524   33.8857   53.9176 c9      1  lig       0.791677
      9 O_08         25.4033   34.3257   54.3776 o1      1  lig      -0.536163
     10 N_09         23.2482   33.4270   54.6434 ng      1  lig      -0.420493
     11 C_0a         23.1370   33.1250   56.0094 cb      1  lig       0.040254
     12 C_0b         24.2143   33.1248   56.9090 ci      1  lig      -0.135403
     13 C_0c         24.0253   32.7062   58.2246 cj      1  lig      -0.197504
     14 C_0d         22.7705   32.2714   58.6521 ck      1  lig      -0.093359
     15 C_0e         21.6863   32.2743   57.7701 cm      1  lig      -0.009219
     16 C_0f         20.3025   31.8402   58.2496 cn      1  lig      -0.107204
     17 N_0g         19.9634   30.4477   57.9026 nr      1  lig       0.062006
     18 N_0h         19.4463   30.2402   56.6192 nw      1  lig      -0.316913
     19 C_0i         19.1308   29.0660   56.1704 co      1  lig       0.275922
     20 C_0j         19.3736   27.9499   57.0773 cq      1  lig      -0.150909
     21 C_0k         19.8766   28.1437   58.3179 cr      1  lig      -0.223688
     22 C_0l         20.2104   29.4566   58.8326 cs      1  lig       0.531761
     23 O_0m         20.6463   29.6206   59.9751 o2      1  lig      -0.562300
     24 C_0n         18.5497   28.8548   54.8168 ct      1  lig      -0.068419
     25 C_0o         18.0818   27.5994   54.3835 cw      1  lig      -0.176160
     26 C_0p         17.5074   27.4408   53.1218 cA      1  lig       0.245931
     27 F_0q         17.0467   26.2296   52.7384 f0      1  lig      -0.171516
     28 C_0r         17.4033   28.5299   52.2618 cB      1  lig      -0.176247
     29 C_0s         17.8673   29.7781   52.6646 cC      1  lig       0.035159
     30 F_0t         17.7609   30.8419   51.8371 f1      1  lig      -0.076570
     31 C_0u         18.4356   29.9375   53.9275 cD      1  lig      -0.108466
     32 C_0v         21.8747   32.7140   56.4546 cE      1  lig      -0.061355
     33 H_0w         24.1876   30.3383   48.3460 h0      1  lig       0.112208
     34 H_0x         24.5150   31.2115   46.8123 h6      1  lig       0.112208
     35 H_0y         23.1151   31.6971   47.8315 h7      1  lig       0.112208
     36 H_0z         25.8108   34.2890   48.4583 h8      1  lig       0.107423
     37 H_10         24.1211   34.0936   47.8521 h9      1  lig       0.107423
     38 H_11         25.5049   33.4937   46.8770 hb      1  lig       0.107423
     39 H_12         24.8307   31.3415   50.4685 hd      1  lig       0.070252
     40 H_13         25.6021   32.9259   50.5162 he      1  lig       0.070252
     41 H_14         23.3634   34.0403   50.0275 hf      1  lig       0.064259
     42 H_15         22.5892   32.4739   49.9457 hg      1  lig       0.064259
     43 H_16         22.1627   33.5458   52.1190 hh      1  lig       0.033133
     44 H_17         23.0888   32.0635   52.3319 hi      1  lig       0.033133
     45 H_18         22.4154   33.2522   54.1019 hj      1  lig       0.322613
     46 H_19         25.2089   33.4237   56.6125 hk      1  lig       0.165019
     47 H_1a         24.8630   32.7065   58.9086 hl      1  lig       0.171345
     48 H_1b         22.6414   31.9261   59.6686 hm      1  lig       0.156330
     49 H_1c         20.2139   32.0303   59.3222 hq      1  lig       0.116899
     50 H_1d         19.5576   32.5036   57.8026 hr      1  lig       0.116899
     51 H_1e         19.1728   26.9292   56.7918 ht      1  lig       0.160387
     52 H_1f         20.0565   27.2935   58.9600 hu      1  lig       0.184297
     53 H_1g         18.1260   26.7262   55.0106 hv      1  lig       0.169746
     54 H_1h         16.9594   28.4049   51.2856 hy      1  lig       0.171501
     55 H_1i         18.7785   30.9226   54.2072 hz      1  lig       0.137572
     56 H_1j         21.0345   32.6999   55.7730 hA      1  lig       0.101634
     57 H_1k         25.9892   31.8985   48.5302 hB      1  lig       0.303327
@<TRIPOS>BOND
     1     1     2    1
     2     1    33    1
     3     1    34    1
     4     1    35    1
     5     2     3    1
     6     2     4    1
     7     2    57    1
     8     3    36    1
     9     3    37    1
    10     3    38    1
    11     4     5    1
    12     4    39    1
    13     4    40    1
    14     5     6    1
    15     5    41    1
    16     5    42    1
    17     6     7    1
    18     6    43    1
    19     6    44    1
    20     7     8    1
    21     8     9    2
    22     8    10    1
    23    10    11    1
    24    10    45    1
    25    11    12    2
    26    11    32    1
    27    12    13    1
    28    12    46    1
    29    13    14    2
    30    13    47    1
    31    14    15    1
    32    14    48    1
    33    15    16    1
    34    15    32    2
    35    16    17    1
    36    16    49    1
    37    16    50    1
    38    17    18    1
    39    17    22    1
    40    18    19    2
    41    19    20    1
    42    19    24    1
    43    20    21    2
    44    20    51    1
    45    21    22    1
    46    21    52    1
    47    22    23    2
    48    24    25    2
    49    24    31    1
    50    25    26    1
    51    25    53    1
    52    26    27    1
    53    26    28    2
    54    28    29    1
    55    28    54    1
    56    29    30    1
    57    29    31    2
    58    31    55    1
    59    32    56    1
