@<TRIPOS>MOLECULE
lig
  62   65 0 0 0
SMALL
NO_CHARGES


@<TRIPOS>ATOM
      1 F_00         17.2816   31.0754   52.1112 f0      1  lig      -0.161254
      2 C_01         17.5663   29.9576   52.8176 c4      1  lig       0.168493
      3 C_02         17.2204   28.7069   52.3169 c5      1  lig      -0.134590
      4 C_03         17.5045   27.5609   53.0572 c6      1  lig       0.214373
      5 F_04         17.1492   26.3482   52.5773 f1      1  lig      -0.158746
      6 C_05         18.1372   27.6641   54.2964 c7      1  lig      -0.150036
      7 C_06         18.4805   28.9202   54.8291 c8      1  lig      -0.126614
      8 C_07         18.1932   30.0628   54.0561 c9      1  lig      -0.105651
      9 C_08         19.0915   29.0865   56.1754 cb      1  lig       0.315922
     10 N_09         19.4480   30.2440   56.6384 n0      1  lig      -0.299909
     11 N_0a         19.9872   30.4154   57.9169 ng      1  lig       0.038297
     12 C_0b         20.3516   31.7988   58.2814 ci      1  lig      -0.039965
     13 C_0c         21.7041   32.2478   57.7248 cj      1  lig       0.001339
     14 C_0d         22.8361   32.2592   58.5463 ck      1  lig      -0.074103
     15 C_0e         24.0614   32.6950   58.0440 cm      1  lig      -0.233798
     16 C_0f         24.1708   33.1134   56.7180 cn      1  lig      -0.111040
     17 C_0g         23.0463   33.1012   55.8772 co      1  lig       0.109677
     18 N_0h         23.0717   33.4390   54.5115 nr      1  lig      -0.549567
     19 C_0i         24.1496   33.7673   53.6964 cq      1  lig       0.835372
     20 O_0j         25.3229   33.9268   54.0317 o0      1  lig      -0.581936
     21 O_0k         23.6922   33.9229   52.4360 o1      1  lig      -0.433669
     22 C_0l         24.5555   34.3241   51.3706 cr      1  lig       0.189117
     23 C_0m         24.9605   33.1210   50.5062 cs      1  lig      -0.076599
     24 C_0n         23.7698   32.4740   49.7769 ct      1  lig      -0.135499
     25 N_0o         24.2474   31.2754   48.9228 nw      1  lig       0.004559
     26 C_0p         24.9826   31.7341   47.6405 cw      1  lig      -0.076117
     27 C_0q         25.3999   30.4887   46.8374 cA      1  lig       0.052646
     28 O_0r         24.2725   29.6655   46.5504 o2      1  lig      -0.365746
     29 C_0s         23.5838   29.1848   47.7005 cB      1  lig       0.036742
     30 C_0t         23.0596   30.3553   48.5561 cC      1  lig      -0.017409
     31 C_0u         21.8149   32.6843   56.3986 cD      1  lig      -0.084410
     32 C_0v         20.2116   29.4040   58.8272 cE      1  lig       0.543257
     33 O_0w         20.6467   29.5340   59.9745 o3      1  lig      -0.554047
     34 C_0x         19.8462   28.1043   58.2906 cF      1  lig      -0.250768
     35 C_0y         19.3150   27.9488   57.0557 cG      1  lig      -0.140229
     36 H_0z         16.7228   28.6247   51.3638 h0      1  lig       0.158636
     37 H_10         18.3289   26.7384   54.8198 h6      1  lig       0.161776
     38 H_11         18.4373   31.0512   54.4133 h7      1  lig       0.142977
     39 H_12         20.3352   31.9552   59.3633 h8      1  lig       0.091598
     40 H_13         19.5785   32.4740   57.9083 h9      1  lig       0.091598
     41 H_14         22.7680   31.9276   59.5733 hb      1  lig       0.156392
     42 H_15         24.9369   32.7045   58.6794 hd      1  lig       0.184387
     43 H_16         25.1406   33.4331   56.3730 he      1  lig       0.167926
     44 H_17         22.1815   33.4019   54.0390 hf      1  lig       0.356479
     45 H_18         25.4474   34.8305   51.7432 hg      1  lig       0.057114
     46 H_19         24.0329   35.0555   50.7548 hh      1  lig       0.057114
     47 H_1a         25.4479   32.3780   51.1334 hi      1  lig       0.077462
     48 H_1b         25.7125   33.4630   49.7972 hj      1  lig       0.077462
     49 H_1c         23.2443   33.1592   49.1097 hk      1  lig       0.116952
     50 H_1d         23.0627   32.0705   50.5030 hl      1  lig       0.116952
     51 H_1e         25.8476   32.3258   47.9311 hm      1  lig       0.095898
     52 H_1f         24.2873   32.3578   47.0764 hq      1  lig       0.095898
     53 H_1g         26.1483   29.9176   47.3875 hr      1  lig       0.100211
     54 H_1h         25.8649   30.7828   45.8963 ht      1  lig       0.100211
     55 H_1i         24.2465   28.5388   48.2809 hu      1  lig       0.103567
     56 H_1j         22.7528   28.5585   47.3733 hv      1  lig       0.103567
     57 H_1k         22.5999   30.0141   49.4822 hy      1  lig      -0.007852
     58 H_1l         22.3468   30.9683   48.0008 hz      1  lig      -0.007852
     59 H_1m         20.9378   32.6688   55.7673 hA      1  lig       0.116500
     60 H_1n         20.0003   27.2406   58.9192 hB      1  lig       0.197349
     61 H_1o         19.0693   26.9394   56.7608 hC      1  lig       0.170068
     62 H_1p         24.8973   30.7375   49.4781 hD      1  lig       0.269518
@<TRIPOS>BOND
     1     1     2    1
     2     2     3    2
     3     2     8    1
     4     3     4    1
     5     3    36    1
     6     4     5    1
     7     4     6    2
     8     6     7    1
     9     6    37    1
    10     7     8    2
    11     7     9    1
    12     8    38    1
    13     9    10    2
    14     9    35    1
    15    10    11    1
    16    11    12    1
    17    11    32    1
    18    12    13    1
    19    12    39    1
    20    12    40    1
    21    13    14    2
    22    13    31    1
    23    14    15    1
    24    14    41    1
    25    15    16    2
    26    15    42    1
    27    16    17    1
    28    16    43    1
    29    17    18    1
    30    17    31    2
    31    18    19    1
    32    18    44    1
    33    19    20    2
    34    19    21    1
    35    21    22    1
    36    22    23    1
    37    22    45    1
    38    22    46    1
    39    23    24    1
    40    23    47    1
    41    23    48    1
    42    24    25    1
    43    24    49    1
    44    24    50    1
    45    25    26    1
    46    25    30    1
    47    25    62    1
    48    26    27    1
    49    26    51    1
    50    26    52    1
    51    27    28    1
    52    27    53    1
    53    27    54    1
    54    28    29    1
    55    29    30    1
    56    29    55    1
    57    29    56    1
    58    30    57    1
    59    30    58    1
    60    31    59    1
    61    32    33    2
    62    32    34    1
    63    34    35    2
    64    34    60    1
    65    35    61    1
