@<TRIPOS>MOLECULE
lig
  62   65 0 0 0
SMALL
NO_CHARGES


@<TRIPOS>ATOM
      1 C_00         24.5142   29.6953   47.9585 c4      1  lig      -0.112707
      2 N_01         25.0478   30.9914   47.3121 n0      1  lig      -0.070880
      3 C_02         25.0352   30.8721   45.7714 c5      1  lig      -0.127175
      4 C_03         24.2814   32.2462   47.7916 c6      1  lig      -0.049287
      5 C_04         24.6889   32.6254   49.2268 c7      1  lig      -0.004231
      6 C_05         24.0700   33.9609   49.6661 c8      1  lig       0.028053
      7 O_06         24.6994   34.3776   50.8698 o0      1  lig      -0.387035
      8 C_07         24.2676   33.9261   52.0991 c9      1  lig       0.179324
      9 C_08         25.0957   34.1824   53.1917 cb      1  lig       0.111138
     10 N_09         24.7495   33.8877   54.4681 ng      1  lig      -0.517181
     11 C_0a         23.5277   33.3148   54.6599 ci      1  lig       0.704568
     12 N_0b         22.6559   33.0070   53.6557 nr      1  lig      -0.527777
     13 C_0c         23.0377   33.3162   52.3872 cj      1  lig       0.089193
     14 C_0d         23.1444   32.9496   56.0657 ck      1  lig      -0.209784
     15 C_0e         24.1013   32.9515   57.0936 cm      1  lig      -0.056859
     16 C_0f         23.7807   32.5462   58.3864 cn      1  lig      -0.178433
     17 C_0g         22.4873   32.1321   58.6834 co      1  lig      -0.159159
     18 C_0h         21.5035   32.1395   57.6943 cq      1  lig       0.056599
     19 C_0i         20.0756   31.7262   58.0418 cr      1  lig      -0.092238
     20 N_0j         19.7788   30.3264   57.6974 nw      1  lig       0.015249
     21 N_0k         19.3220   30.1063   56.3970 nA      1  lig      -0.298968
     22 C_0l         19.0578   28.9232   55.9396 cs      1  lig       0.238656
     23 C_0m         19.2639   27.8190   56.8630 ct      1  lig      -0.171877
     24 C_0n         19.7247   28.0235   58.1197 cw      1  lig      -0.220210
     25 C_0o         20.0267   29.3467   58.6401 cA      1  lig       0.570565
     26 O_0p         20.4528   29.5258   59.7830 o1      1  lig      -0.563883
     27 C_0q         18.5859   28.6953   54.5539 cB      1  lig      -0.005858
     28 C_0r         18.8374   29.6707   53.5722 cC      1  lig      -0.043032
     29 C_0s         18.4128   29.4909   52.2572 cD      1  lig      -0.177195
     30 C_0t         17.7329   28.3325   51.8947 cE      1  lig      -0.121179
     31 C_0u         17.4785   27.3446   52.8514 cF      1  lig       0.011818
     32 C_0v         17.9055   27.5253   54.1718 cG      1  lig      -0.146719
     33 C_0w         16.7887   26.1237   52.4583 cH      1  lig       0.312191
     34 N_0x         16.2471   25.1517   52.1433 nB      1  lig      -0.440989
     35 C_0y         21.8349   32.5514   56.3972 cI      1  lig      -0.009347
     36 H_0z         25.0981   28.8539   47.5794 h0      1  lig       0.109099
     37 H_10         23.4604   29.5878   47.6995 h6      1  lig       0.109099
     38 H_11         24.6463   29.8069   49.0319 h7      1  lig       0.109099
     39 H_12         25.6208   29.9926   45.4977 h8      1  lig       0.117324
     40 H_13         25.4917   31.7762   45.3646 h9      1  lig       0.117324
     41 H_14         23.9979   30.7731   45.4452 hb      1  lig       0.117324
     42 H_15         23.2138   32.0440   47.6748 hd      1  lig       0.085460
     43 H_16         24.5642   33.0446   47.1048 he      1  lig       0.085460
     44 H_17         25.7769   32.7183   49.2815 hf      1  lig       0.046636
     45 H_18         24.4097   31.8543   49.9454 hg      1  lig       0.046636
     46 H_19         22.9769   33.9265   49.7093 hh      1  lig       0.094336
     47 H_1a         24.3180   34.7240   48.9251 hi      1  lig       0.094336
     48 H_1b         26.0425   34.6825   53.0470 hj      1  lig       0.145409
     49 H_1c         22.2995   33.1186   51.6219 hk      1  lig       0.114980
     50 H_1d         25.1196   33.2487   56.8940 hl      1  lig       0.111552
     51 H_1e         24.5425   32.5454   59.1518 hm      1  lig       0.160706
     52 H_1f         22.2477   31.8032   59.6837 hq      1  lig       0.164661
     53 H_1g         19.3795   32.3699   57.5020 hr      1  lig       0.106512
     54 H_1h         19.8732   31.9406   59.0947 ht      1  lig       0.106512
     55 H_1i         19.0824   26.7951   56.5699 hu      1  lig       0.162720
     56 H_1j         19.8855   27.1800   58.7735 hv      1  lig       0.175897
     57 H_1k         19.3708   30.5777   53.8186 hy      1  lig       0.145651
     58 H_1l         18.6160   30.2516   51.5169 hz      1  lig       0.174302
     59 H_1m         17.4168   28.2056   50.8690 hA      1  lig       0.170618
     60 H_1n         17.6976   26.7470   54.8942 hB      1  lig       0.153265
     61 H_1o         21.0682   32.5367   55.6344 hC      1  lig       0.046301
     62 H_1p         26.0123   31.1088   47.6156 hD      1  lig       0.303430
@<TRIPOS>BOND
     1     1     2    1
     2     1    36    1
     3     1    37    1
     4     1    38    1
     5     2     3    1
     6     2     4    1
     7     2    62    1
     8     3    39    1
     9     3    40    1
    10     3    41    1
    11     4     5    1
    12     4    42    1
    13     4    43    1
    14     5     6    1
    15     5    44    1
    16     5    45    1
    17     6     7    1
    18     6    46    1
    19     6    47    1
    20     7     8    1
    21     8     9    2
    22     8    13    1
    23     9    10    1
    24     9    48    1
    25    10    11    2
    26    11    12    1
    27    11    14    1
    28    12    13    2
    29    13    49    1
    30    14    15    2
    31    14    35    1
    32    15    16    1
    33    15    50    1
    34    16    17    2
    35    16    51    1
    36    17    18    1
    37    17    52    1
    38    18    19    1
    39    18    35    2
    40    19    20    1
    41    19    53    1
    42    19    54    1
    43    20    21    1
    44    20    25    1
    45    21    22    2
    46    22    23    1
    47    22    27    1
    48    23    24    2
    49    23    55    1
    50    24    25    1
    51    24    56    1
    52    25    26    2
    53    27    28    2
    54    27    32    1
    55    28    29    1
    56    28    57    1
    57    29    30    2
    58    29    58    1
    59    30    31    1
    60    30    59    1
    61    31    32    2
    62    31    33    1
    63    32    60    1
    64    33    34    3
    65    35    61    1
