@<TRIPOS>MOLECULE
lig
  42   44 0 0 0
SMALL
NO_CHARGES


@<TRIPOS>ATOM
      1 C_00         25.1164   34.0885   51.5934 c4      1  lig      -0.037342
      2 O_01         24.1301   33.7369   52.5533 o0      1  lig      -0.443070
      3 C_02         24.3822   33.8574   53.8672 c5      1  lig       0.932480
      4 O_03         25.4212   34.3253   54.3389 o1      1  lig      -0.602662
      5 N_04         23.2845   33.3698   54.5611 n0      1  lig      -0.532079
      6 C_05         23.1453   33.1032   55.9319 c6      1  lig       0.055434
      7 C_06         24.2134   33.1207   56.8434 c7      1  lig      -0.074621
      8 C_07         24.0130   32.7263   58.1651 c8      1  lig      -0.246338
      9 C_08         22.7541   32.3009   58.5857 c9      1  lig      -0.120521
     10 C_09         21.6774   32.2902   57.6945 cb      1  lig       0.018654
     11 C_0a         20.2905   31.8639   58.1736 ci      1  lig      -0.062346
     12 N_0b         19.9601   30.4564   57.8723 ng      1  lig       0.076599
     13 N_0c         19.4739   30.2001   56.5844 nr      1  lig      -0.380883
     14 C_0d         19.1911   29.0032   56.1719 cj      1  lig       0.400951
     15 C_0e         19.4025   27.9265   57.1277 ck      1  lig      -0.210240
     16 C_0f         19.8697   28.1685   58.3739 cm      1  lig      -0.229754
     17 C_0g         20.2016   29.5029   58.8403 cn      1  lig       0.553007
     18 O_0h         20.6427   29.7018   59.9757 o2      1  lig      -0.590691
     19 C_0i         18.6876   28.7180   54.8040 co      1  lig      -0.141303
     20 C_0j         18.8911   29.6524   53.7735 cq      1  lig      -0.125053
     21 C_0k         18.4516   29.3961   52.4744 cr      1  lig       0.193761
     22 F_0l         18.6544   30.3132   51.5022 f0      1  lig      -0.173232
     23 C_0m         17.8112   28.1968   52.1757 cs      1  lig      -0.188565
     24 C_0n         17.5967   27.2584   53.1819 ct      1  lig       0.189919
     25 F_0o         16.9685   26.0957   52.8982 f1      1  lig      -0.170495
     26 C_0p         18.0276   27.5199   54.4833 cw      1  lig      -0.168654
     27 C_0q         21.8774   32.7029   56.3720 cA      1  lig      -0.142732
     28 H_0r         24.7176   33.9666   50.5869 h0      1  lig       0.091109
     29 H_0s         25.9984   33.4536   51.6874 h6      1  lig       0.091109
     30 H_0t         25.4266   35.1259   51.7108 h7      1  lig       0.091109
     31 H_0u         22.4934   33.1213   53.9845 h8      1  lig       0.316262
     32 H_0v         25.2119   33.4073   56.5509 h9      1  lig       0.157479
     33 H_0w         24.8450   32.7315   58.8552 hb      1  lig       0.169691
     34 H_0x         22.6174   31.9774   59.6070 hd      1  lig       0.156556
     35 H_0y         20.1987   32.0823   59.2391 he      1  lig       0.088575
     36 H_0z         19.5424   32.5108   57.7099 hf      1  lig       0.088575
     37 H_10         19.2125   26.8963   56.8666 hg      1  lig       0.177426
     38 H_11         20.0246   27.3442   59.0538 hh      1  lig       0.174473
     39 H_12         19.4020   30.5850   53.9648 hi      1  lig       0.144179
     40 H_13         17.4868   27.9916   51.1669 hj      1  lig       0.176503
     41 H_14         17.8297   26.7622   55.2275 hk      1  lig       0.151379
     42 H_15         21.0463   32.6822   55.6804 hl      1  lig       0.145351
@<TRIPOS>BOND
     1     1     2    1
     2     1    28    1
     3     1    29    1
     4     1    30    1
     5     2     3    1
     6     3     4    2
     7     3     5    1
     8     5     6    1
     9     5    31    1
    10     6     7    2
    11     6    27    1
    12     7     8    1
    13     7    32    1
    14     8     9    2
    15     8    33    1
    16     9    10    1
    17     9    34    1
    18    10    11    1
    19    10    27    2
    20    11    12    1
    21    11    35    1
    22    11    36    1
    23    12    13    1
    24    12    17    1
    25    13    14    2
    26    14    15    1
    27    14    19    1
    28    15    16    2
    29    15    37    1
    30    16    17    1
    31    16    38    1
    32    17    18    2
    33    19    20    2
    34    19    26    1
    35    20    21    1
    36    20    39    1
    37    21    22    1
    38    21    23    2
    39    23    24    1
    40    23    40    1
    41    24    25    1
    42    24    26    2
    43    26    41    1
    44    27    42    1
