@<TRIPOS>MOLECULE
lig
  43   46 0 0 0
SMALL
NO_CHARGES


@<TRIPOS>ATOM
      1 C_00         25.4546   34.0626   51.8681 c4      1  lig      -0.358717
      2 C_01         24.2458   33.5655   52.6084 c5      1  lig       0.350337
      3 C_02         23.0466   33.1217   52.0694 c6      1  lig      -0.382004
      4 S_03         21.9546   32.7270   53.3515 s0      1  lig      -0.049111
      5 C_04         23.1994   33.1657   54.4892 c7      1  lig       0.305662
      6 N_05         24.3147   33.5726   53.9283 n0      1  lig      -0.457361
      7 C_06         23.0109   32.9868   55.9672 c8      1  lig      -0.074350
      8 C_07         24.0904   33.1252   56.8524 c9      1  lig      -0.027898
      9 C_08         23.9482   32.8025   58.2023 cb      1  lig      -0.217859
     10 C_09         22.7220   32.3503   58.6876 ci      1  lig      -0.155215
     11 C_0a         21.6224   32.2538   57.8330 cj      1  lig       0.063207
     12 C_0b         20.2645   31.7859   58.3460 ck      1  lig      -0.069294
     13 N_0c         19.9383   30.4029   57.9522 ng      1  lig       0.016557
     14 N_0d         19.4243   30.2333   56.6662 nr      1  lig      -0.281182
     15 C_0e         19.0833   29.0741   56.1949 cm      1  lig       0.262606
     16 C_0f         19.3233   27.9339   57.0667 cn      1  lig      -0.117970
     17 C_0g         19.8505   28.0858   58.3019 co      1  lig      -0.286107
     18 C_0h         20.1983   29.3876   58.8430 cq      1  lig       0.602885
     19 O_0i         20.6466   29.5267   59.9800 o0      1  lig      -0.597217
     20 C_0j         18.4707   28.9052   54.8520 cr      1  lig      -0.090318
     21 C_0k         18.2408   27.6408   54.2812 cs      1  lig      -0.182639
     22 C_0l         17.5943   27.5179   53.0509 ct      1  lig       0.212298
     23 F_0m         17.3595   26.2922   52.5332 f0      1  lig      -0.179642
     24 C_0n         17.1807   28.6542   52.3604 cw      1  lig      -0.160010
     25 C_0o         17.4067   29.9163   52.9017 cA      1  lig       0.091580
     26 F_0p         16.9990   31.0230   52.2407 f1      1  lig      -0.107544
     27 C_0q         18.0491   30.0411   54.1333 cB      1  lig      -0.094940
     28 C_0r         21.7707   32.5908   56.4850 cC      1  lig      -0.091016
     29 H_0s         25.6022   35.1228   52.0676 h0      1  lig       0.109929
     30 H_0t         25.3498   33.9567   50.7902 h6      1  lig       0.109929
     31 H_0u         26.3609   33.5264   52.1496 h7      1  lig       0.109929
     32 H_0v         22.7549   33.0415   51.0331 h8      1  lig       0.240312
     33 H_0w         25.0615   33.4345   56.4916 h9      1  lig       0.109053
     34 H_0x         24.8015   32.8789   58.8636 hb      1  lig       0.163641
     35 H_0y         22.6301   32.0620   59.7238 hd      1  lig       0.171190
     36 H_0z         20.2058   31.9337   59.4280 he      1  lig       0.089117
     37 H_10         19.4974   32.4531   57.9494 hf      1  lig       0.089117
     38 H_11         19.0880   26.9238   56.7639 hg      1  lig       0.158976
     39 H_12         20.0252   27.2181   58.9207 hh      1  lig       0.181238
     40 H_13         18.5424   26.7267   54.7670 hi      1  lig       0.154176
     41 H_14         16.6799   28.5527   51.4100 hj      1  lig       0.163257
     42 H_15         18.1922   31.0351   54.5284 hk      1  lig       0.129297
     43 H_16         20.9150   32.4861   55.8355 hl      1  lig       0.096101
@<TRIPOS>BOND
     1     1     2    1
     2     1    29    1
     3     1    30    1
     4     1    31    1
     5     2     3    2
     6     2     6    1
     7     3     4    1
     8     3    32    1
     9     4     5    1
    10     5     6    2
    11     5     7    1
    12     7     8    2
    13     7    28    1
    14     8     9    1
    15     8    33    1
    16     9    10    2
    17     9    34    1
    18    10    11    1
    19    10    35    1
    20    11    12    1
    21    11    28    2
    22    12    13    1
    23    12    36    1
    24    12    37    1
    25    13    14    1
    26    13    18    1
    27    14    15    2
    28    15    16    1
    29    15    20    1
    30    16    17    2
    31    16    38    1
    32    17    18    1
    33    17    39    1
    34    18    19    2
    35    20    21    2
    36    20    27    1
    37    21    22    1
    38    21    40    1
    39    22    23    1
    40    22    24    2
    41    24    25    1
    42    24    41    1
    43    25    26    1
    44    25    27    2
    45    27    42    1
    46    28    43    1
