@<TRIPOS>MOLECULE
lig
  57   59 0 0 0
SMALL
NO_CHARGES


@<TRIPOS>ATOM
      1 C_00         24.0986   34.7063   49.0484 c4      1  lig      -0.185481
      2 N_01         24.6432   33.2826   48.7886 n0      1  lig       0.007045
      3 C_02         25.8543   33.3451   47.8288 c5      1  lig      -0.244554
      4 C_03         25.0189   32.4927   50.0695 c6      1  lig      -0.179324
      5 C_04         23.8157   32.1161   50.9601 c7      1  lig      -0.069548
      6 C_05         23.1879   33.2288   51.8121 c8      1  lig       0.020998
      7 O_06         24.2114   33.9262   52.5318 o0      1  lig      -0.395843
      8 C_07         24.4007   33.9085   53.8846 c9      1  lig       0.694618
      9 O_08         25.4467   34.3262   54.3754 o1      1  lig      -0.452028
     10 N_09         23.2923   33.4328   54.5845 ng      1  lig      -0.385900
     11 C_0a         23.1560   33.1247   55.9447 cb      1  lig       0.020381
     12 C_0b         24.2128   33.1260   56.8689 ci      1  lig      -0.188107
     13 C_0c         23.9896   32.7237   58.1852 cj      1  lig      -0.204200
     14 C_0d         22.7192   32.3122   58.5862 ck      1  lig      -0.073311
     15 C_0e         21.6582   32.3108   57.6778 cm      1  lig       0.014831
     16 C_0f         20.2579   31.8951   58.1203 cn      1  lig      -0.098796
     17 N_0g         19.9237   30.4965   57.7849 nr      1  lig      -0.084599
     18 N_0h         19.4310   30.2906   56.5316 nw      1  lig      -0.193173
     19 C_0i         19.0502   29.1758   56.0241 co      1  lig       0.184532
     20 C_0j         19.2185   27.8061   56.7105 cq      1  lig      -0.060604
     21 S_0k         19.9746   27.7611   58.3757 s0      1  lig      -0.149944
     22 C_0l         20.2175   29.5288   58.7582 cr      1  lig       0.495161
     23 O_0m         20.6471   29.7895   59.8854 o2      1  lig      -0.455199
     24 C_0n         18.3886   29.1760   54.6905 cs      1  lig      -0.098287
     25 C_0o         18.2431   27.9972   53.9358 ct      1  lig      -0.095556
     26 C_0p         17.5693   28.0071   52.7145 cw      1  lig       0.184764
     27 F_0q         17.4239   26.8610   52.0143 f0      1  lig      -0.158061
     28 C_0r         17.0348   29.1930   52.2188 cA      1  lig      -0.177863
     29 C_0s         17.1737   30.3718   52.9443 cB      1  lig       0.093649
     30 F_0t         16.6469   31.5248   52.4740 f1      1  lig      -0.110756
     31 C_0u         17.8471   30.3641   54.1637 cC      1  lig      -0.078181
     32 C_0v         21.8822   32.7264   56.3625 cD      1  lig      -0.027682
     33 H_0w         23.0449   34.6088   49.3014 h0      1  lig       0.127505
     34 H_0x         24.1862   35.2925   48.1323 h6      1  lig       0.127505
     35 H_0y         24.6791   35.1545   49.8572 h7      1  lig       0.127505
     36 H_0z         26.1448   32.3237   47.5759 h8      1  lig       0.147509
     37 H_10         26.6631   33.8707   48.3419 h9      1  lig       0.147509
     38 H_11         25.5459   33.8749   46.9260 hb      1  lig       0.147509
     39 H_12         25.4471   31.5649   49.6903 hd      1  lig       0.142859
     40 H_13         25.7990   33.0494   50.5947 he      1  lig       0.142859
     41 H_14         23.0435   31.6278   50.3649 hf      1  lig       0.070703
     42 H_15         24.1756   31.3658   51.6605 hg      1  lig       0.070703
     43 H_16         22.6454   33.9289   51.1891 hh      1  lig       0.096871
     44 H_17         22.4243   32.7875   52.4523 hi      1  lig       0.096871
     45 H_18         22.4656   33.2745   54.0316 hj      1  lig       0.303126
     46 H_19         25.2150   33.4159   56.5938 hk      1  lig       0.164334
     47 H_1a         24.8092   32.7233   58.8896 hl      1  lig       0.174694
     48 H_1b         22.5614   31.9838   59.6014 hm      1  lig       0.146248
     49 H_1c         20.1211   32.1147   59.1822 hq      1  lig       0.102568
     50 H_1d         19.5349   32.5541   57.6362 hr      1  lig       0.102568
     51 H_1e         19.8520   27.1631   56.0983 ht      1  lig       0.119388
     52 H_1f         18.2473   27.3171   56.7973 hu      1  lig       0.119388
     53 H_1g         18.6283   27.0467   54.2749 hv      1  lig       0.123523
     54 H_1h         16.5075   29.1938   51.2769 hy      1  lig       0.173069
     55 H_1i         17.9220   31.2953   54.7066 hz      1  lig       0.100502
     56 H_1j         21.0593   32.7116   55.6611 hA      1  lig       0.078051
     57 H_1k         23.9191   32.7591   48.3116 hB      1  lig       0.297651
@<TRIPOS>BOND
     1     1     2    1
     2     1    33    1
     3     1    34    1
     4     1    35    1
     5     2     3    1
     6     2     4    1
     7     2    57    1
     8     3    36    1
     9     3    37    1
    10     3    38    1
    11     4     5    1
    12     4    39    1
    13     4    40    1
    14     5     6    1
    15     5    41    1
    16     5    42    1
    17     6     7    1
    18     6    43    1
    19     6    44    1
    20     7     8    1
    21     8     9    2
    22     8    10    1
    23    10    11    1
    24    10    45    1
    25    11    12    2
    26    11    32    1
    27    12    13    1
    28    12    46    1
    29    13    14    2
    30    13    47    1
    31    14    15    1
    32    14    48    1
    33    15    16    1
    34    15    32    2
    35    16    17    1
    36    16    49    1
    37    16    50    1
    38    17    18    1
    39    17    22    1
    40    18    19    2
    41    19    20    1
    42    19    24    1
    43    20    21    1
    44    20    51    1
    45    20    52    1
    46    21    22    1
    47    22    23    2
    48    24    25    2
    49    24    31    1
    50    25    26    1
    51    25    53    1
    52    26    27    1
    53    26    28    2
    54    28    29    1
    55    28    54    1
    56    29    30    1
    57    29    31    2
    58    31    55    1
    59    32    56    1
