@<TRIPOS>MOLECULE
lig
  66   70 0 0 0
SMALL
NO_CHARGES


@<TRIPOS>ATOM
      1 C_00         25.2972   29.3647   46.7015 c4      1  lig      -0.417418
      2 N_01         25.0472   30.5455   47.6646 n0      1  lig       0.006396
      3 C_02         23.6340   30.4434   48.2818 c5      1  lig      -0.079566
      4 C_03         23.4401   31.5920   49.2829 c6      1  lig       0.015503
      5 C_04         23.6806   32.9771   48.6432 c7      1  lig       0.008930
      6 C_05         23.5016   34.1241   49.6598 c8      1  lig      -0.091586
      7 O_06         24.4712   34.0336   50.7092 o0      1  lig      -0.356138
      8 C_07         24.0941   33.7587   52.0109 c9      1  lig       0.125063
      9 C_08         25.0463   33.9328   53.0156 cb      1  lig       0.176718
     10 N_09         24.7792   33.7416   54.3338 ng      1  lig      -0.578087
     11 C_0a         23.5184   33.3355   54.6583 ci      1  lig       0.699138
     12 N_0b         22.5278   33.1163   53.7486 nr      1  lig      -0.465729
     13 C_0c         22.8299   33.3247   52.4399 cj      1  lig       0.056975
     14 C_0d         23.2238   33.0313   56.1029 ck      1  lig      -0.188528
     15 C_0e         24.2415   33.0442   57.0710 cm      1  lig      -0.053783
     16 C_0f         23.9955   32.6644   58.3898 cn      1  lig      -0.200831
     17 C_0g         22.7234   32.2550   58.7744 co      1  lig      -0.136591
     18 C_0h         21.6814   32.2510   57.8432 cq      1  lig       0.052176
     19 C_0i         20.2776   31.8222   58.2633 cr      1  lig      -0.099221
     20 N_0j         19.9596   30.4283   57.9055 nw      1  lig       0.015008
     21 N_0k         19.5057   30.2203   56.5990 nA      1  lig      -0.347731
     22 C_0l         19.2468   29.0387   56.1349 cs      1  lig       0.281001
     23 C_0m         19.4363   27.9257   57.0492 ct      1  lig      -0.185874
     24 C_0n         19.8875   28.1176   58.3104 cw      1  lig      -0.197417
     25 C_0o         20.2068   29.4347   58.8316 cA      1  lig       0.568320
     26 O_0p         20.6455   29.5966   59.9728 o1      1  lig      -0.559077
     27 C_0q         18.7906   28.8114   54.7456 cB      1  lig      -0.010256
     28 C_0r         19.1078   29.7541   53.7518 cC      1  lig      -0.074178
     29 C_0s         18.7040   29.5653   52.4326 cD      1  lig      -0.164630
     30 C_0t         17.9727   28.4346   52.0806 cE      1  lig      -0.136443
     31 C_0u         17.6452   27.4857   53.0540 cF      1  lig       0.000586
     32 C_0v         18.0626   27.6673   54.3751 cG      1  lig      -0.119424
     33 C_0w         16.8662   26.3141   52.6780 cH      1  lig       0.349952
     34 N_0x         16.2469   25.3833   52.3771 nB      1  lig      -0.479573
     35 C_0y         21.9323   32.6609   56.5280 cI      1  lig      -0.019460
     36 C_0z         25.0622   33.0303   47.9539 cJ      1  lig       0.021565
     37 C_10         25.2640   31.8925   46.9387 cK      1  lig      -0.160218
     38 H_11         25.1789   28.4422   47.2750 h0      1  lig       0.182702
     39 H_12         26.3189   29.4533   46.3281 h6      1  lig       0.182702
     40 H_13         24.5692   29.4223   45.8884 h7      1  lig       0.182702
     41 H_14         22.9124   30.4809   47.4607 h8      1  lig       0.106651
     42 H_15         23.5641   29.4777   48.7758 h9      1  lig       0.106651
     43 H_16         24.1182   31.4437   50.1259 hb      1  lig       0.027947
     44 H_17         22.4311   31.5422   49.6918 hd      1  lig       0.027947
     45 H_18         22.9233   33.1220   47.8691 he      1  lig       0.044473
     46 H_19         23.6730   35.0747   49.1549 hf      1  lig       0.119760
     47 H_1a         22.4649   34.1812   49.9843 hg      1  lig       0.119760
     48 H_1b         26.0449   34.2630   52.7644 hh      1  lig       0.130372
     49 H_1c         22.0200   33.1298   51.7544 hi      1  lig       0.146617
     50 H_1d         25.2505   33.3245   56.8032 hj      1  lig       0.118417
     51 H_1e         24.8048   32.6723   59.1083 hk      1  lig       0.164500
     52 H_1f         22.5475   31.9264   59.7879 hl      1  lig       0.153401
     53 H_1g         20.1415   32.0069   59.3313 hm      1  lig       0.113622
     54 H_1h         19.5506   32.4823   57.7863 hq      1  lig       0.113622
     55 H_1i         19.2477   26.9076   56.7408 hr      1  lig       0.164150
     56 H_1j         20.0324   27.2661   58.9593 ht      1  lig       0.171407
     57 H_1k         19.6758   30.6403   53.9934 hu      1  lig       0.167542
     58 H_1l         18.9589   30.2997   51.6786 hv      1  lig       0.172873
     59 H_1m         17.6668   28.3038   51.0519 hy      1  lig       0.173051
     60 H_1n         17.7985   26.9210   55.1130 hz      1  lig       0.154031
     61 H_1o         21.1162   32.6438   55.8207 hA      1  lig       0.031976
     62 H_1p         25.8511   32.9816   48.7062 hB      1  lig       0.052497
     63 H_1q         25.1907   33.9891   47.4494 hC      1  lig       0.052497
     64 H_1r         24.5527   31.9411   46.1113 hD      1  lig       0.128107
     65 H_1s         26.2809   31.8898   46.5439 hE      1  lig       0.128107
     66 H_1t         25.7364   30.5092   48.4103 hF      1  lig       0.306344
@<TRIPOS>BOND
     1     1     2    1
     2     1    38    1
     3     1    39    1
     4     1    40    1
     5     2     3    1
     6     2    37    1
     7     2    66    1
     8     3     4    1
     9     3    41    1
    10     3    42    1
    11     4     5    1
    12     4    43    1
    13     4    44    1
    14     5     6    1
    15     5    36    1
    16     5    45    1
    17     6     7    1
    18     6    46    1
    19     6    47    1
    20     7     8    1
    21     8     9    2
    22     8    13    1
    23     9    10    1
    24     9    48    1
    25    10    11    2
    26    11    12    1
    27    11    14    1
    28    12    13    2
    29    13    49    1
    30    14    15    2
    31    14    35    1
    32    15    16    1
    33    15    50    1
    34    16    17    2
    35    16    51    1
    36    17    18    1
    37    17    52    1
    38    18    19    1
    39    18    35    2
    40    19    20    1
    41    19    53    1
    42    19    54    1
    43    20    21    1
    44    20    25    1
    45    21    22    2
    46    22    23    1
    47    22    27    1
    48    23    24    2
    49    23    55    1
    50    24    25    1
    51    24    56    1
    52    25    26    2
    53    27    28    2
    54    27    32    1
    55    28    29    1
    56    28    57    1
    57    29    30    2
    58    29    58    1
    59    30    31    1
    60    30    59    1
    61    31    32    2
    62    31    33    1
    63    32    60    1
    64    33    34    3
    65    35    61    1
    66    36    37    1
    67    36    62    1
    68    36    63    1
    69    37    64    1
    70    37    65    1
