@<TRIPOS>MOLECULE
lig
  44   47 0 0 0
SMALL
NO_CHARGES


@<TRIPOS>ATOM
      1 C_00         24.3564   33.6113   52.8448 c4      1  lig      -0.005339
      2 C_01         23.0183   33.4975   52.5099 c5      1  lig      -0.036948
      3 N_02         22.3767   33.2602   53.6894 n0      1  lig      -0.200330
      4 C_03         23.3432   33.2295   54.6627 c6      1  lig       0.331198
      5 N_04         24.5366   33.4320   54.1451 ng      1  lig      -0.517930
      6 C_05         23.0804   32.9514   56.1082 c7      1  lig      -0.064399
      7 C_06         24.1299   32.9871   57.0396 c8      1  lig      -0.044999
      8 C_07         23.9111   32.6334   58.3678 c9      1  lig      -0.221336
      9 C_08         22.6434   32.2299   58.7760 cb      1  lig      -0.152099
     10 C_09         21.5787   32.2132   57.8761 ci      1  lig       0.072896
     11 C_0a         20.1881   31.7866   58.3387 cj      1  lig      -0.074802
     12 N_0b         19.8602   30.4029   57.9603 nr      1  lig      -0.045802
     13 N_0c         19.3499   30.2301   56.6724 nw      1  lig      -0.171803
     14 C_0d         19.0474   29.0660   56.1901 ck      1  lig       0.174533
     15 C_0e         19.3238   27.9262   57.0522 cm      1  lig      -0.097540
     16 C_0f         19.8480   28.0844   58.2899 cn      1  lig      -0.268520
     17 C_0g         20.1660   29.3879   58.8437 co      1  lig       0.603634
     18 O_0h         20.6457   29.5266   59.9726 o0      1  lig      -0.584429
     19 C_0i         18.4259   28.8961   54.8518 cq      1  lig      -0.102330
     20 C_0j         18.2460   27.6349   54.2566 cr      1  lig      -0.148764
     21 C_0k         17.5752   27.5079   53.0404 cs      1  lig       0.180899
     22 F_0l         17.3791   26.2837   52.5028 f0      1  lig      -0.170055
     23 C_0m         17.0894   28.6363   52.3852 ct      1  lig      -0.138141
     24 C_0n         17.2733   29.8953   52.9468 cw      1  lig       0.128943
     25 F_0o         16.7952   30.9967   52.3254 f1      1  lig      -0.151016
     26 C_0p         17.9353   30.0226   54.1664 cA      1  lig      -0.093159
     27 C_0q         21.8002   32.5881   56.5482 cB      1  lig      -0.129001
     28 C_0r         22.2516   33.6272   51.1806 cC      1  lig      -0.209095
     29 H_0s         21.3852   33.1297   53.8181 h0      1  lig       0.254452
     30 H_0t         25.1266   33.2707   56.7329 h6      1  lig       0.123376
     31 H_0u         24.7309   32.6529   59.0725 h7      1  lig       0.163420
     32 H_0v         22.4875   31.9256   59.8004 h8      1  lig       0.157459
     33 H_0w         20.0883   31.9468   59.4152 h9      1  lig       0.094374
     34 H_0x         19.4496   32.4622   57.9040 hb      1  lig       0.094374
     35 H_0y         19.1182   26.9124   56.7412 hd      1  lig       0.152844
     36 H_0z         20.0418   27.2166   58.9026 he      1  lig       0.176284
     37 H_10         18.6020   26.7265   54.7163 hf      1  lig       0.159181
     38 H_11         16.5637   28.5315   51.4477 hg      1  lig       0.163582
     39 H_12         18.0368   31.0133   54.5841 hh      1  lig       0.127182
     40 H_13         20.9726   32.5554   55.8558 hi      1  lig       0.085651
     41 H_14         25.0887   33.8206   52.0791 hj      1  lig       0.140273
     42 H_15         21.1887   33.4612   51.3559 hk      1  lig       0.081094
     43 H_16         22.4001   34.6264   50.7710 hl      1  lig       0.081094
     44 H_17         22.6227   32.8861   50.4728 hm      1  lig       0.081094
@<TRIPOS>BOND
     1     1     2    2
     2     1     5    1
     3     1    41    1
     4     2    28    1
     5     2     3    1
     6     3    29    1
     7     3     4    1
     8     4     6    1
     9     4     5    2
    10     6     7    2
    11     6    27    1
    12     7     8    1
    13     7    30    1
    14     8     9    2
    15     8    31    1
    16     9    10    1
    17     9    32    1
    18    10    11    1
    19    10    27    2
    20    11    12    1
    21    11    33    1
    22    11    34    1
    23    12    13    1
    24    12    17    1
    25    13    14    2
    26    14    15    1
    27    14    19    1
    28    15    16    2
    29    15    35    1
    30    16    17    1
    31    16    36    1
    32    17    18    2
    33    19    20    2
    34    19    26    1
    35    20    21    1
    36    20    37    1
    37    21    22    1
    38    21    23    2
    39    23    24    1
    40    23    38    1
    41    24    25    1
    42    24    26    2
    43    26    39    1
    44    27    40    1
    45    28    42    1
    46    28    43    1
    47    28    44    1
