@<TRIPOS>MOLECULE
lig
  57   59 0 0 0
SMALL
NO_CHARGES


@<TRIPOS>ATOM
      1 C_00         24.4983   32.6426   47.4000 c4      1  lig      -0.261115
      2 N_01         25.8477   33.1265   47.9776 n0      1  lig      -0.007209
      3 C_02         26.7282   33.7516   46.8757 c5      1  lig      -0.388816
      4 C_03         25.7070   34.0817   49.1846 c6      1  lig      -0.202406
      5 C_04         24.9669   33.4120   50.3525 c7      1  lig      -0.004470
      6 C_05         25.0476   34.2680   51.6221 c8      1  lig       0.041274
      7 O_06         24.1442   33.7553   52.5943 o0      1  lig      -0.443103
      8 C_07         24.4004   33.8646   53.9094 c9      1  lig       0.810311
      9 O_08         25.4439   34.3239   54.3765 o1      1  lig      -0.555667
     10 N_09         23.2956   33.3782   54.5987 ng      1  lig      -0.436912
     11 C_0a         23.1427   33.0843   55.9651 cb      1  lig       0.046340
     12 C_0b         24.1938   33.1130   56.8977 ci      1  lig      -0.061296
     13 C_0c         23.9701   32.7046   58.2133 cj      1  lig      -0.244593
     14 C_0d         22.7094   32.2562   58.6081 ck      1  lig      -0.099769
     15 C_0e         21.6523   32.2304   57.6940 cm      1  lig       0.029092
     16 C_0f         20.2620   31.7774   58.1408 cn      1  lig      -0.070468
     17 N_0g         19.9517   30.3721   57.8100 nr      1  lig       0.079083
     18 N_0h         19.4515   30.1430   56.5234 nw      1  lig      -0.353471
     19 C_0i         19.1719   28.9566   56.0882 co      1  lig       0.279892
     20 C_0j         19.4049   27.8574   57.0122 cq      1  lig      -0.168535
     21 C_0k         19.8897   28.0688   58.2559 cr      1  lig      -0.221510
     22 C_0l         20.2101   29.3962   58.7559 cs      1  lig       0.527860
     23 O_0m         20.6471   29.5714   59.8944 o2      1  lig      -0.582195
     24 C_0n         18.6411   28.7040   54.7248 ct      1  lig       0.000311
     25 C_0o         17.9457   27.5247   54.4124 cw      1  lig      -0.189404
     26 C_0p         17.4541   27.3084   53.1266 cA      1  lig      -0.192195
     27 C_0q         17.6594   28.2659   52.1380 cB      1  lig       0.271974
     28 F_0r         17.1816   28.0564   50.8899 f0      1  lig      -0.196467
     29 C_0s         18.3519   29.4381   52.4270 cC      1  lig      -0.184255
     30 C_0t         18.8414   29.6559   53.7125 cD      1  lig      -0.158628
     31 C_0u         21.8740   32.6562   56.3786 cE      1  lig      -0.172661
     32 H_0v         23.9868   32.0683   48.1732 h0      1  lig       0.162195
     33 H_0w         24.7173   32.0099   46.5367 h6      1  lig       0.162195
     34 H_0x         23.9268   33.5257   47.1104 h7      1  lig       0.162195
     35 H_0y         27.6879   34.0173   47.3235 h8      1  lig       0.191137
     36 H_0z         26.2116   34.6326   46.4901 h9      1  lig       0.191137
     37 H_10         26.8650   32.9982   46.0986 hb      1  lig       0.191137
     38 H_11         26.7316   34.3260   49.4693 hd      1  lig       0.152242
     39 H_12         25.2033   34.9796   48.8228 he      1  lig       0.152242
     40 H_13         23.9164   33.2654   50.0932 hf      1  lig       0.057392
     41 H_14         25.3859   32.4241   50.5579 hg      1  lig       0.057392
     42 H_15         26.0764   34.2786   51.9887 hh      1  lig       0.098915
     43 H_16         24.7726   35.2996   51.4025 hi      1  lig       0.098915
     44 H_17         22.4979   33.1553   54.0205 hj      1  lig       0.314208
     45 H_18         25.1884   33.4288   56.6266 hk      1  lig       0.127648
     46 H_19         24.7862   32.7203   58.9219 hl      1  lig       0.175490
     47 H_1a         22.5539   31.9248   59.6252 hm      1  lig       0.160032
     48 H_1b         20.1375   31.9754   59.2077 hq      1  lig       0.095503
     49 H_1c         19.5167   32.4201   57.6663 hr      1  lig       0.095503
     50 H_1d         19.2194   26.8341   56.7260 ht      1  lig       0.161073
     51 H_1e         20.0661   27.2285   58.9091 hu      1  lig       0.177298
     52 H_1f         17.7647   26.7541   55.1486 hv      1  lig       0.167656
     53 H_1g         16.9208   26.3981   52.8933 hy      1  lig       0.170719
     54 H_1h         18.5097   30.1723   51.6504 hz      1  lig       0.160541
     55 H_1i         19.3813   30.5702   53.9102 hA      1  lig       0.133974
     56 H_1j         21.0578   32.6204   55.6701 hB      1  lig       0.157422
     57 H_1k         26.3475   32.3089   48.3217 hC      1  lig       0.334847
@<TRIPOS>BOND
     1     1     2    1
     2     1    32    1
     3     1    33    1
     4     1    34    1
     5     2     3    1
     6     2     4    1
     7     2    57    1
     8     3    35    1
     9     3    36    1
    10     3    37    1
    11     4     5    1
    12     4    38    1
    13     4    39    1
    14     5     6    1
    15     5    40    1
    16     5    41    1
    17     6     7    1
    18     6    42    1
    19     6    43    1
    20     7     8    1
    21     8     9    2
    22     8    10    1
    23    10    11    1
    24    10    44    1
    25    11    12    2
    26    11    31    1
    27    12    13    1
    28    12    45    1
    29    13    14    2
    30    13    46    1
    31    14    15    1
    32    14    47    1
    33    15    16    1
    34    15    31    2
    35    16    17    1
    36    16    48    1
    37    16    49    1
    38    17    18    1
    39    17    22    1
    40    18    19    2
    41    19    20    1
    42    19    24    1
    43    20    21    2
    44    20    50    1
    45    21    22    1
    46    21    51    1
    47    22    23    2
    48    24    25    2
    49    24    30    1
    50    25    26    1
    51    25    52    1
    52    26    27    2
    53    26    53    1
    54    27    28    1
    55    27    29    1
    56    29    30    2
    57    29    54    1
    58    30    55    1
    59    31    56    1
