@<TRIPOS>MOLECULE
lig
  61   64 0 0 0
SMALL
NO_CHARGES


@<TRIPOS>ATOM
      1 C_00         25.3721   31.2219   46.6644 c4      1  lig      -0.116864
      2 N_01         24.2292   31.6762   47.5975 n0      1  lig      -0.028405
      3 C_02         24.1603   30.8253   48.8811 c5      1  lig      -0.088230
      4 C_03         24.1810   33.2089   47.8252 c6      1  lig      -0.090227
      5 C_04         25.4044   33.8076   48.5650 c7      1  lig      -0.014873
      6 C_05         25.4494   33.6181   50.0927 c8      1  lig       0.072871
      7 O_06         24.1499   33.8272   50.6358 o0      1  lig      -0.345259
      8 C_07         23.9715   33.6722   51.9928 c9      1  lig       0.088064
      9 C_08         24.9553   33.9009   52.9691 cb      1  lig       0.164193
     10 N_09         24.7187   33.7452   54.2980 ng      1  lig      -0.561577
     11 C_0a         23.4638   33.3512   54.6606 ci      1  lig       0.682672
     12 N_0b         22.4436   33.1319   53.7852 nr      1  lig      -0.454858
     13 C_0c         22.7129   33.2993   52.4668 cj      1  lig       0.139576
     14 C_0d         23.2073   33.0414   56.1083 ck      1  lig      -0.211500
     15 C_0e         24.2462   33.0690   57.0560 cm      1  lig      -0.049431
     16 C_0f         24.0331   32.6782   58.3749 cn      1  lig      -0.191407
     17 C_0g         22.7722   32.2476   58.7759 co      1  lig      -0.141813
     18 C_0h         21.7116   32.2359   57.8728 cq      1  lig       0.069509
     19 C_0i         20.3201   31.8105   58.3284 cr      1  lig      -0.129800
     20 N_0j         19.9672   30.4340   57.9355 nw      1  lig       0.026724
     21 N_0k         19.4198   30.2849   56.6582 nA      1  lig      -0.244969
     22 C_0l         19.0471   29.1359   56.1903 cs      1  lig       0.200144
     23 C_0m         19.2945   27.9828   57.0432 ct      1  lig      -0.119025
     24 C_0n         19.8472   28.1166   58.2711 cw      1  lig      -0.248805
     25 C_0o         20.2070   29.4083   58.8283 cA      1  lig       0.566113
     26 O_0p         20.6472   29.5276   59.9744 o1      1  lig      -0.575008
     27 C_0q         18.3925   28.9878   54.8648 cB      1  lig      -0.038883
     28 C_0r         18.2472   27.7417   54.2309 cC      1  lig      -0.139112
     29 C_0s         17.5890   27.6339   53.0045 cD      1  lig      -0.175902
     30 C_0t         17.0562   28.7685   52.3958 cE      1  lig      -0.172129
     31 C_0u         17.1910   30.0122   53.0059 cF      1  lig       0.136834
     32 F_0v         16.6720   31.1185   52.4235 f0      1  lig      -0.142857
     33 C_0w         17.8573   30.1210   54.2252 cG      1  lig      -0.041433
     34 C_0x         21.9312   32.6478   56.5553 cH      1  lig      -0.023195
     35 H_0y         25.3080   31.8113   45.7470 h0      1  lig       0.110080
     36 H_0z         25.2244   30.1595   46.4546 h6      1  lig       0.110080
     37 H_10         26.3194   31.3882   47.1758 h7      1  lig       0.110080
     38 H_11         23.4080   31.2663   49.5382 h8      1  lig       0.081670
     39 H_12         25.1453   30.8109   49.3438 h9      1  lig       0.081670
     40 H_13         23.8709   29.8206   48.5750 hb      1  lig       0.081670
     41 H_14         24.0971   33.6212   46.8176 hd      1  lig       0.101853
     42 H_15         23.2361   33.4125   48.3360 he      1  lig       0.101853
     43 H_16         26.3385   33.4600   48.1276 hf      1  lig       0.073215
     44 H_17         25.3938   34.8815   48.3778 hg      1  lig       0.073215
     45 H_18         25.8116   32.6248   50.3571 hh      1  lig       0.066392
     46 H_19         26.1665   34.3265   50.5072 hi      1  lig       0.066392
     47 H_1a         25.9519   34.2201   52.7070 hj      1  lig       0.115264
     48 H_1b         21.8874   33.1258   51.7883 hk      1  lig       0.115423
     49 H_1c         25.2443   33.3742   56.7757 hl      1  lig       0.112556
     50 H_1d         24.8506   32.7011   59.0815 hm      1  lig       0.159845
     51 H_1e         22.6205   31.9255   59.7949 hq      1  lig       0.169610
     52 H_1f         20.2231   31.9635   59.4069 hr      1  lig       0.114612
     53 H_1g         19.5887   32.4978   57.8996 ht      1  lig       0.114612
     54 H_1h         19.0401   26.9809   56.7320 hu      1  lig       0.145886
     55 H_1i         20.0179   27.2405   58.8787 hv      1  lig       0.181341
     56 H_1j         18.6474   26.8346   54.6590 hy      1  lig       0.155648
     57 H_1k         17.4965   26.6686   52.5287 hz      1  lig       0.176225
     58 H_1l         16.5387   28.6851   51.4518 hA      1  lig       0.152028
     59 H_1m         17.9339   31.1003   54.6757 hB      1  lig       0.075906
     60 H_1n         21.0980   32.6179   55.8680 hC      1  lig       0.053931
     61 H_1o         23.3734   31.4683   47.0969 hD      1  lig       0.297805
@<TRIPOS>BOND
     1     1     2    1
     2     1    35    1
     3     1    36    1
     4     1    37    1
     5     2     3    1
     6     2     4    1
     7     2    61    1
     8     3    38    1
     9     3    39    1
    10     3    40    1
    11     4     5    1
    12     4    41    1
    13     4    42    1
    14     5     6    1
    15     5    43    1
    16     5    44    1
    17     6     7    1
    18     6    45    1
    19     6    46    1
    20     7     8    1
    21     8     9    2
    22     8    13    1
    23     9    10    1
    24     9    47    1
    25    10    11    2
    26    11    12    1
    27    11    14    1
    28    12    13    2
    29    13    48    1
    30    14    15    2
    31    14    34    1
    32    15    16    1
    33    15    49    1
    34    16    17    2
    35    16    50    1
    36    17    18    1
    37    17    51    1
    38    18    19    1
    39    18    34    2
    40    19    20    1
    41    19    52    1
    42    19    53    1
    43    20    21    1
    44    20    25    1
    45    21    22    2
    46    22    23    1
    47    22    27    1
    48    23    24    2
    49    23    54    1
    50    24    25    1
    51    24    55    1
    52    25    26    2
    53    27    28    2
    54    27    33    1
    55    28    29    1
    56    28    56    1
    57    29    30    2
    58    29    57    1
    59    30    31    1
    60    30    58    1
    61    31    32    1
    62    31    33    2
    63    33    59    1
    64    34    60    1
