@<TRIPOS>MOLECULE
lig
  60   63 0 0 0
SMALL
NO_CHARGES


@<TRIPOS>ATOM
      1 C_00         22.9152   29.8931   48.1561 c4      1  lig      -0.291698
      2 N_01         24.2551   30.6483   48.3008 n0      1  lig       0.017828
      3 C_02         25.1218   30.4724   47.0330 c5      1  lig      -0.232097
      4 C_03         24.0434   32.1319   48.6858 c6      1  lig      -0.024495
      5 C_04         25.3059   32.6758   49.3763 c7      1  lig      -0.019554
      6 C_05         25.1552   34.0797   49.9601 c8      1  lig      -0.067770
      7 O_06         23.9394   34.1774   50.6857 o0      1  lig      -0.387848
      8 C_07         23.8832   33.7800   52.0009 c9      1  lig       0.047288
      9 C_08         24.9026   33.9265   52.9536 cb      1  lig       0.254294
     10 N_09         24.7110   33.6572   54.2732 ng      1  lig      -0.653716
     11 C_0a         23.4739   33.2169   54.6422 ci      1  lig       0.803469
     12 N_0b         22.4457   33.0003   53.7775 nr      1  lig      -0.613228
     13 C_0c         22.6711   33.2812   52.4732 cj      1  lig       0.226698
     14 C_0d         23.2175   32.9270   56.0926 ck      1  lig      -0.181628
     15 C_0e         24.2484   32.9698   57.0452 cm      1  lig      -0.057635
     16 C_0f         24.0210   32.6233   58.3754 cn      1  lig      -0.204193
     17 C_0g         22.7528   32.2188   58.7787 co      1  lig      -0.107046
     18 C_0h         21.6995   32.1904   57.8666 cq      1  lig       0.080362
     19 C_0i         20.3003   31.7816   58.3130 cr      1  lig      -0.114194
     20 N_0j         19.9556   30.3998   57.9322 nw      1  lig      -0.017761
     21 N_0k         19.4383   30.2304   56.6462 nA      1  lig      -0.166268
     22 C_0l         19.0792   29.0738   56.1867 cs      1  lig       0.107265
     23 C_0m         19.3118   27.9338   57.0630 ct      1  lig      -0.135357
     24 C_0n         19.8456   28.0864   58.2961 cw      1  lig      -0.220581
     25 C_0o         20.1994   29.3881   58.8358 cA      1  lig       0.564888
     26 O_0p         20.6461   29.5264   59.9758 o1      1  lig      -0.559244
     27 C_0q         18.4684   28.9016   54.8476 cB      1  lig       0.051846
     28 C_0r         18.2473   27.6429   54.2625 cC      1  lig      -0.055866
     29 C_0s         17.6426   27.5449   53.0095 cD      1  lig      -0.201057
     30 C_0t         17.2575   28.7188   52.3615 cE      1  lig      -0.051383
     31 N_0u         17.4530   29.9497   52.8941 nB      1  lig      -0.058659
     32 C_0v         18.0494   30.0246   54.1102 cF      1  lig      -0.065282
     33 C_0w         21.9345   32.5596   56.5416 cG      1  lig      -0.134765
     34 H_0x         22.3844   29.9730   49.1064 h0      1  lig       0.150820
     35 H_0y         23.1448   28.8479   47.9357 h6      1  lig       0.150820
     36 H_0z         22.3491   30.3567   47.3451 h7      1  lig       0.150820
     37 H_10         26.0669   30.9958   47.1787 h8      1  lig       0.140179
     38 H_11         24.5712   30.8895   46.1875 h9      1  lig       0.140179
     39 H_12         25.2982   29.4030   46.9013 hb      1  lig       0.140179
     40 H_13         23.7656   32.6740   47.7807 hd      1  lig       0.104486
     41 H_14         23.1997   32.1424   49.3791 he      1  lig       0.104486
     42 H_15         25.6010   31.9984   50.1797 hf      1  lig       0.027000
     43 H_16         26.1285   32.7270   48.6630 hg      1  lig       0.027000
     44 H_17         26.0407   34.3279   50.5421 hh      1  lig       0.133972
     45 H_18         25.1051   34.8078   49.1483 hi      1  lig       0.133972
     46 H_19         25.8688   34.3330   52.6953 hj      1  lig       0.132144
     47 H_1a         21.8477   33.1258   51.7966 hk      1  lig       0.110875
     48 H_1b         25.2516   33.2562   56.7614 hl      1  lig       0.134894
     49 H_1c         24.8370   32.6599   59.0843 hm      1  lig       0.161359
     50 H_1d         22.5869   31.9258   59.8043 hq      1  lig       0.153817
     51 H_1e         20.1888   31.9511   59.3862 hr      1  lig       0.114504
     52 H_1f         19.5784   32.4646   57.8623 ht      1  lig       0.114504
     53 H_1g         19.0698   26.9259   56.7633 hu      1  lig       0.154650
     54 H_1h         20.0130   27.2201   58.9200 hv      1  lig       0.180560
     55 H_1i         18.5430   26.7263   54.7473 hy      1  lig       0.161457
     56 H_1j         17.4839   26.5810   52.5493 hz      1  lig       0.178105
     57 H_1k         16.7860   28.6808   51.3901 hA      1  lig       0.134939
     58 H_1l         18.1755   31.0262   54.4931 hB      1  lig       0.107247
     59 H_1m         21.1066   32.5214   55.8496 hC      1  lig       0.105522
     60 H_1n         24.7582   30.2204   49.0693 hD      1  lig       0.118897
@<TRIPOS>BOND
     1     1     2    1
     2     1    34    1
     3     1    35    1
     4     1    36    1
     5     2     3    1
     6     2     4    1
     7     2    60    1
     8     3    37    1
     9     3    38    1
    10     3    39    1
    11     4     5    1
    12     4    40    1
    13     4    41    1
    14     5     6    1
    15     5    42    1
    16     5    43    1
    17     6     7    1
    18     6    44    1
    19     6    45    1
    20     7     8    1
    21     8     9    2
    22     8    13    1
    23     9    10    1
    24     9    46    1
    25    10    11    2
    26    11    12    1
    27    11    14    1
    28    12    13    2
    29    13    47    1
    30    14    15    2
    31    14    33    1
    32    15    16    1
    33    15    48    1
    34    16    17    2
    35    16    49    1
    36    17    18    1
    37    17    50    1
    38    18    19    1
    39    18    33    2
    40    19    20    1
    41    19    51    1
    42    19    52    1
    43    20    21    1
    44    20    25    1
    45    21    22    2
    46    22    23    1
    47    22    27    1
    48    23    24    2
    49    23    53    1
    50    24    25    1
    51    24    54    1
    52    25    26    2
    53    27    28    2
    54    27    32    1
    55    28    29    1
    56    28    55    1
    57    29    30    2
    58    29    56    1
    59    30    31    1
    60    30    57    1
    61    31    32    2
    62    32    58    1
    63    33    59    1
