@<TRIPOS>MOLECULE
lig
  63   67 0 0 0
SMALL
NO_CHARGES


@<TRIPOS>ATOM
      1 O_00         20.6270   29.5265   59.9403 o0      1  lig      -0.594027
      2 C_01         20.1829   29.3653   58.8001 c4      1  lig       0.591243
      3 C_02         19.8506   28.0457   58.2897 c5      1  lig      -0.282740
      4 C_03         19.3754   27.8491   57.0403 c6      1  lig      -0.114304
      5 C_04         19.1767   28.9531   56.1176 c7      1  lig       0.239671
      6 N_05         19.4497   30.1369   56.5714 n0      1  lig      -0.291974
      7 N_06         19.9289   30.3529   57.8691 ng      1  lig       0.032901
      8 C_07         20.2272   31.7541   58.2201 c8      1  lig      -0.128967
      9 C_08         21.6335   32.2198   57.8298 c9      1  lig       0.080011
     10 C_09         22.6557   32.2345   58.7758 cb      1  lig      -0.168243
     11 C_0a         23.9255   32.6947   58.4300 ci      1  lig      -0.189510
     12 C_0b         24.1809   33.1262   57.1291 cj      1  lig      -0.045456
     13 C_0c         23.1796   33.1186   56.1459 ck      1  lig      -0.212885
     14 C_0d         21.8982   32.6757   56.5339 cm      1  lig      -0.029609
     15 C_0e         23.4866   33.4885   54.7188 cn      1  lig       0.707535
     16 N_0f         24.7735   33.7939   54.3763 nr      1  lig      -0.525130
     17 C_0g         25.0455   33.9261   53.0474 co      1  lig       0.103038
     18 C_0h         24.0793   33.7512   52.0531 cq      1  lig       0.138264
     19 O_0i         24.4620   33.8044   50.7208 o1      1  lig      -0.353213
     20 C_0j         23.5165   33.5647   49.6672 cr      1  lig      -0.010935
     21 C_0k         22.8204   32.1758   49.7068 cs      1  lig       0.023061
     22 N_0l         23.1410   31.3200   48.5625 nw      1  lig      -0.375565
     23 C_0m         22.2179   30.1779   48.5055 ct      1  lig      -0.013595
     24 C_0n         22.5690   29.2456   47.3242 cw      1  lig       0.014419
     25 O_0o         23.9278   28.8247   47.3937 o2      1  lig      -0.377121
     26 C_0p         24.8503   29.9097   47.4537 cA      1  lig       0.026305
     27 C_0q         24.5319   30.8525   48.6318 cB      1  lig       0.037112
     28 C_0r         22.7764   33.5181   52.5153 cC      1  lig       0.139741
     29 N_0s         22.4655   33.3787   53.8269 nA      1  lig      -0.547485
     30 C_0t         18.7029   28.7100   54.7362 cD      1  lig      -0.033954
     31 C_0u         18.9902   29.6554   53.7347 cE      1  lig      -0.063328
     32 C_0v         18.5804   29.4532   52.4203 cF      1  lig      -0.129355
     33 C_0w         17.8711   28.3033   52.0789 cG      1  lig      -0.099411
     34 C_0x         17.5750   27.3490   53.0531 cH      1  lig      -0.012291
     35 C_0y         17.9978   27.5468   54.3733 cI      1  lig      -0.155435
     36 C_0z         16.8353   26.1529   52.6794 cJ      1  lig       0.351091
     37 N_10         16.2471   25.2029   52.3739 nB      1  lig      -0.461414
     38 H_11         20.0054   27.1985   58.9415 h0      1  lig       0.179741
     39 H_12         19.1747   26.8274   56.7472 h6      1  lig       0.156318
     40 H_13         20.0624   31.9423   59.2831 h7      1  lig       0.105461
     41 H_14         19.5002   32.4009   57.7262 h8      1  lig       0.105461
     42 H_15         22.4704   31.8955   59.7838 h9      1  lig       0.167334
     43 H_16         24.7161   32.7081   59.1652 hb      1  lig       0.152241
     44 H_17         25.1811   33.4579   56.8889 hd      1  lig       0.104180
     45 H_18         21.0942   32.6452   55.8119 he      1  lig       0.059091
     46 H_19         26.0725   34.1248   52.7752 hf      1  lig       0.139110
     47 H_1a         24.0621   33.6894   48.7289 hg      1  lig       0.101084
     48 H_1b         22.7678   34.3543   49.6289 hh      1  lig       0.101084
     49 H_1c         21.7449   32.3447   49.7367 hi      1  lig       0.049857
     50 H_1d         23.0711   31.6427   50.6256 hj      1  lig       0.049857
     51 H_1e         22.2387   29.6086   49.4364 hk      1  lig       0.081366
     52 H_1f         21.1943   30.5352   48.3859 hl      1  lig       0.081366
     53 H_1g         21.9285   28.3638   47.3407 hm      1  lig       0.080841
     54 H_1h         22.3764   29.7434   46.3695 hq      1  lig       0.080841
     55 H_1i         25.8514   29.5045   47.5698 hr      1  lig       0.077575
     56 H_1j         24.8528   30.4604   46.5109 ht      1  lig       0.077575
     57 H_1k         24.7139   30.3366   49.5754 hu      1  lig       0.068128
     58 H_1l         25.2195   31.6992   48.6085 hv      1  lig       0.068128
     59 H_1m         21.9441   33.3882   51.8472 hy      1  lig       0.118961
     60 H_1n         19.5448   30.5542   53.9657 hz      1  lig       0.137389
     61 H_1o         18.8169   30.1842   51.6597 hA      1  lig       0.100737
     62 H_1p         17.5652   28.1587   51.0520 hB      1  lig       0.131835
     63 H_1q         17.7611   26.7954   55.1128 hC      1  lig       0.155994
@<TRIPOS>BOND
     1     1     2    2
     2     2     3    1
     3     2     7    1
     4     3     4    2
     5     3    38    1
     6     4     5    1
     7     4    39    1
     8     5     6    2
     9     5    30    1
    10     6     7    1
    11     7     8    1
    12     8     9    1
    13     8    40    1
    14     8    41    1
    15     9    10    2
    16     9    14    1
    17    10    11    1
    18    10    42    1
    19    11    12    2
    20    11    43    1
    21    12    13    1
    22    12    44    1
    23    13    14    2
    24    13    15    1
    25    14    45    1
    26    15    16    2
    27    15    29    1
    28    16    17    1
    29    17    18    2
    30    17    46    1
    31    18    19    1
    32    18    28    1
    33    19    20    1
    34    20    21    1
    35    20    47    1
    36    20    48    1
    37    21    22    1
    38    21    49    1
    39    21    50    1
    40    22    23    1
    41    22    27    1
    42    23    24    1
    43    23    51    1
    44    23    52    1
    45    24    25    1
    46    24    53    1
    47    24    54    1
    48    25    26    1
    49    26    27    1
    50    26    55    1
    51    26    56    1
    52    27    57    1
    53    27    58    1
    54    28    29    2
    55    28    59    1
    56    30    31    2
    57    30    35    1
    58    31    32    1
    59    31    60    1
    60    32    33    2
    61    32    61    1
    62    33    34    1
    63    33    62    1
    64    34    35    2
    65    34    36    1
    66    35    63    1
    67    36    37    3
