@<TRIPOS>MOLECULE
lig
  43   46 0 0 0
SMALL
NO_CHARGES


@<TRIPOS>ATOM
      1 C_00         23.1880   32.9654   51.3241 c4      1  lig      -0.280441
      2 C_01         23.7323   33.2938   52.6892 c5      1  lig       0.069109
      3 O_02         23.0073   32.9075   53.7669 o0      1  lig      -0.146839
      4 C_03         23.7531   33.3159   54.8274 c6      1  lig       0.456804
      5 N_04         24.8721   33.9267   54.4916 n0      1  lig      -0.503581
      6 C_05         24.8644   33.9263   53.1729 c7      1  lig      -0.022692
      7 C_06         23.2892   32.9610   56.2041 c8      1  lig      -0.113027
      8 C_07         24.2048   32.9742   57.2615 c9      1  lig      -0.035985
      9 C_08         23.8221   32.5836   58.5407 cb      1  lig      -0.206506
     10 C_09         22.5149   32.1657   58.7756 ci      1  lig      -0.162382
     11 C_0a         21.5818   32.1409   57.7366 cj      1  lig       0.083738
     12 C_0b         20.1455   31.7068   58.0189 ck      1  lig      -0.124419
     13 N_0c         19.8732   30.2933   57.7046 ng      1  lig       0.034739
     14 N_0d         19.4074   30.0305   56.4136 nr      1  lig      -0.299250
     15 C_0e         19.1391   28.8313   56.0058 cm      1  lig       0.293296
     16 C_0f         19.3681   27.7586   56.9585 cn      1  lig      -0.120858
     17 C_0g         19.8455   28.0025   58.1991 co      1  lig      -0.292593
     18 C_0h         20.1419   29.3425   58.6718 cq      1  lig       0.598801
     19 O_0i         20.5653   29.5511   59.8118 o1      1  lig      -0.593773
     20 C_0j         18.6372   28.5332   54.6463 cr      1  lig      -0.133824
     21 C_0k         17.8474   27.4018   54.3854 cs      1  lig      -0.154850
     22 C_0l         17.4031   27.1223   53.0956 ct      1  lig       0.201497
     23 F_0m         16.6416   26.0297   52.8665 f0      1  lig      -0.174308
     24 C_0n         17.7375   27.9725   52.0441 cw      1  lig      -0.198773
     25 C_0o         18.5167   29.1012   52.2829 cA      1  lig       0.164464
     26 F_0p         18.8413   29.9267   51.2621 f1      1  lig      -0.152976
     27 C_0q         18.9657   29.3808   53.5740 cB      1  lig      -0.091988
     28 C_0r         21.9709   32.5531   56.4542 cC      1  lig      -0.060906
     29 H_0s         22.9983   31.8957   51.2119 h0      1  lig       0.102977
     30 H_0t         23.8766   33.2580   50.5307 h6      1  lig       0.102977
     31 H_0u         22.2474   33.4816   51.1371 h7      1  lig       0.102977
     32 H_0v         25.6629   34.3552   52.5844 h8      1  lig       0.152182
     33 H_0w         25.2268   33.2791   57.0912 h9      1  lig       0.109785
     34 H_0x         24.5411   32.6009   59.3448 hb      1  lig       0.160034
     35 H_0y         22.2263   31.8517   59.7692 hd      1  lig       0.170293
     36 H_0z         19.8857   31.9387   59.0540 he      1  lig       0.105845
     37 H_10         19.4697   32.3355   57.4353 hf      1  lig       0.105845
     38 H_11         19.1925   26.7263   56.6886 hg      1  lig       0.160517
     39 H_12         20.0255   27.1780   58.8725 hh      1  lig       0.183008
     40 H_13         17.5634   26.7263   55.1785 hi      1  lig       0.147668
     41 H_14         17.3976   27.7504   51.0440 hj      1  lig       0.179221
     42 H_15         19.5782   30.2568   53.7298 hk      1  lig       0.134448
     43 H_16         21.2542   32.5276   55.6465 hl      1  lig       0.049746
@<TRIPOS>BOND
     1     1     2    1
     2     1    29    1
     3     1    30    1
     4     1    31    1
     5     2     3    1
     6     2     6    2
     7     3     4    1
     8     4     5    2
     9     4     7    1
    10     5     6    1
    11     6    32    1
    12     7     8    2
    13     7    28    1
    14     8     9    1
    15     8    33    1
    16     9    10    2
    17     9    34    1
    18    10    11    1
    19    10    35    1
    20    11    12    1
    21    11    28    2
    22    12    13    1
    23    12    36    1
    24    12    37    1
    25    13    14    1
    26    13    18    1
    27    14    15    2
    28    15    16    1
    29    15    20    1
    30    16    17    2
    31    16    38    1
    32    17    18    1
    33    17    39    1
    34    18    19    2
    35    20    21    2
    36    20    27    1
    37    21    22    1
    38    21    40    1
    39    22    23    1
    40    22    24    2
    41    24    25    1
    42    24    41    1
    43    25    26    1
    44    25    27    2
    45    27    42    1
    46    28    43    1
