@<TRIPOS>MOLECULE
lig
  61   64 0 0 0
SMALL
NO_CHARGES


@<TRIPOS>ATOM
      1 C_00         22.9982   29.9362   47.9072 c4      1  lig      -0.179158
      2 N_01         24.3278   30.6778   48.1609 n0      1  lig       0.009674
      3 C_02         25.2664   30.5513   46.9393 c5      1  lig      -0.142920
      4 C_03         24.0978   32.1445   48.6051 c6      1  lig      -0.012440
      5 C_04         25.3345   32.6707   49.3599 c7      1  lig      -0.048761
      6 C_05         25.1667   34.0667   49.9645 c8      1  lig      -0.048330
      7 O_06         23.9434   34.1323   50.6770 o0      1  lig      -0.397012
      8 C_07         23.8842   33.7706   52.0053 c9      1  lig       0.156048
      9 C_08         24.9032   33.9262   52.9577 cb      1  lig       0.172942
     10 N_09         24.7082   33.6761   54.2810 ng      1  lig      -0.564488
     11 C_0a         23.4676   33.2411   54.6519 ci      1  lig       0.624921
     12 N_0b         22.4407   33.0212   53.7890 nr      1  lig      -0.375752
     13 C_0c         22.6702   33.2865   52.4828 cj      1  lig       0.051693
     14 C_0d         23.2133   32.9433   56.1005 ck      1  lig      -0.177566
     15 C_0e         24.2471   32.9703   57.0489 cm      1  lig      -0.053795
     16 C_0f         24.0213   32.6080   58.3754 cn      1  lig      -0.207389
     17 C_0g         22.7536   32.2027   58.7775 co      1  lig      -0.131659
     18 C_0h         21.6963   32.1902   57.8694 cq      1  lig       0.066862
     19 C_0i         20.2957   31.7807   58.3139 cr      1  lig      -0.122203
     20 N_0j         19.9551   30.3978   57.9357 nw      1  lig       0.012273
     21 N_0k         19.4349   30.2277   56.6502 nA      1  lig      -0.243430
     22 C_0l         19.0827   29.0695   56.1873 cs      1  lig       0.244043
     23 C_0m         19.3170   27.9301   57.0633 ct      1  lig      -0.138586
     24 C_0n         19.8474   28.0856   58.2968 cw      1  lig      -0.252493
     25 C_0o         20.1991   29.3867   58.8373 cA      1  lig       0.573173
     26 O_0p         20.6471   29.5265   59.9760 o1      1  lig      -0.570706
     27 C_0q         18.4608   28.9036   54.8502 cB      1  lig      -0.083294
     28 C_0r         18.0110   30.0386   54.1489 cC      1  lig      -0.027805
     29 C_0s         17.3558   29.9185   52.9254 cD      1  lig       0.097076
     30 F_0t         16.9185   31.0287   52.2852 f0      1  lig      -0.128309
     31 C_0u         17.1385   28.6589   52.3755 cE      1  lig      -0.211622
     32 C_0v         17.5843   27.5222   53.0461 cF      1  lig       0.215349
     33 F_0w         17.3561   26.2982   52.5187 f1      1  lig      -0.161510
     34 C_0x         18.2471   27.6433   54.2679 cG      1  lig      -0.182613
     35 C_0y         21.9285   32.5770   56.5496 cH      1  lig      -0.032617
     36 H_0z         22.4084   29.9823   48.8233 h0      1  lig       0.114080
     37 H_10         23.2350   28.9005   47.6614 h6      1  lig       0.114080
     38 H_11         22.4853   30.4335   47.0812 h7      1  lig       0.114080
     39 H_12         26.2201   31.0264   47.1753 h8      1  lig       0.100887
     40 H_13         24.7849   31.0399   46.0894 h9      1  lig       0.100887
     41 H_14         25.4169   29.4867   46.7506 hb      1  lig       0.100887
     42 H_15         23.8475   32.7233   47.7129 hd      1  lig       0.107184
     43 H_16         23.2308   32.1204   49.2703 he      1  lig       0.107184
     44 H_17         25.5937   31.9729   50.1566 hf      1  lig       0.059201
     45 H_18         26.1821   32.7267   48.6768 hg      1  lig       0.059201
     46 H_19         26.0431   34.3269   50.5594 hh      1  lig       0.128778
     47 H_1a         25.1075   34.8007   49.1596 hi      1  lig       0.128778
     48 H_1b         25.8727   34.3172   52.6928 hj      1  lig       0.132798
     49 H_1c         21.8471   33.1264   51.8062 hk      1  lig       0.120769
     50 H_1d         25.2516   33.2553   56.7722 hl      1  lig       0.119128
     51 H_1e         24.8402   32.6301   59.0814 hm      1  lig       0.169317
     52 H_1f         22.5933   31.8934   59.7997 hq      1  lig       0.169939
     53 H_1g         20.1839   31.9493   59.3885 hr      1  lig       0.117020
     54 H_1h         19.5726   32.4652   57.8639 ht      1  lig       0.117020
     55 H_1i         19.0791   26.9217   56.7594 hu      1  lig       0.156993
     56 H_1j         20.0182   27.2186   58.9202 hv      1  lig       0.187524
     57 H_1k         18.1470   31.0302   54.5541 hy      1  lig       0.060713
     58 H_1l         16.6177   28.5582   51.4351 hz      1  lig       0.190180
     59 H_1m         18.5720   26.7303   54.7431 hA      1  lig       0.180009
     60 H_1n         21.0976   32.5492   55.8598 hB      1  lig       0.050579
     61 H_1o         24.7827   30.2113   48.9368 hC      1  lig       0.263188
@<TRIPOS>BOND
     1     1     2    1
     2     1    36    1
     3     1    37    1
     4     1    38    1
     5     2     3    1
     6     2     4    1
     7     2    61    1
     8     3    39    1
     9     3    40    1
    10     3    41    1
    11     4     5    1
    12     4    42    1
    13     4    43    1
    14     5     6    1
    15     5    44    1
    16     5    45    1
    17     6     7    1
    18     6    46    1
    19     6    47    1
    20     7     8    1
    21     8     9    2
    22     8    13    1
    23     9    10    1
    24     9    48    1
    25    10    11    2
    26    11    12    1
    27    11    14    1
    28    12    13    2
    29    13    49    1
    30    14    15    2
    31    14    35    1
    32    15    16    1
    33    15    50    1
    34    16    17    2
    35    16    51    1
    36    17    18    1
    37    17    52    1
    38    18    19    1
    39    18    35    2
    40    19    20    1
    41    19    53    1
    42    19    54    1
    43    20    21    1
    44    20    25    1
    45    21    22    2
    46    22    23    1
    47    22    27    1
    48    23    24    2
    49    23    55    1
    50    24    25    1
    51    24    56    1
    52    25    26    2
    53    27    28    2
    54    27    34    1
    55    28    29    1
    56    28    57    1
    57    29    30    1
    58    29    31    2
    59    31    32    1
    60    31    58    1
    61    32    33    1
    62    32    34    2
    63    34    59    1
    64    35    60    1
