@<TRIPOS>MOLECULE
lig
  37   38 0 0 0
SMALL
NO_CHARGES


@<TRIPOS>ATOM
      1 Cl00         75.7005   -8.3852   71.6130 a0      1  lig      -0.102874
      2 C_01         75.0789   -8.7869   70.0563 c4      1  lig      -0.046612
      3 C_02         75.1489   -7.8599   69.0204 c5      1  lig      -0.079336
      4 C_03         74.6410   -8.1753   67.7631 c6      1  lig      -0.173349
      5 C_04         74.0387   -9.4206   67.5315 c7      1  lig       0.116732
      6 C_05         73.4762   -9.7924   66.1600 c8      1  lig       0.028337
      7 N_06         73.6963   -8.8331   65.0704 n0      1  lig      -0.569209
      8 C_07         74.7745   -8.7735   64.2669 c9      1  lig       0.631101
      9 O_08         75.6048   -9.6816   64.2760 o0      1  lig      -0.552629
     10 N_09         74.9020   -7.6621   63.4859 ng      1  lig      -0.272675
     11 C_0a         76.1664   -7.4521   62.7494 cb      1  lig       0.028260
     12 C_0b         75.8125   -7.1672   61.2765 ci      1  lig      -0.018070
     13 C_0c         74.8402   -5.9752   61.0977 cj      1  lig       0.060282
     14 C_0d         74.2179   -5.4892   62.4243 ck      1  lig      -0.039282
     15 C_0e         73.8472   -6.6180   63.4084 cm      1  lig       0.035141
     16 C_0f         73.9548  -10.3439   68.5892 cn      1  lig      -0.063066
     17 Cl0g         73.1947  -11.8871   68.3895 a1      1  lig      -0.108021
     18 C_0h         74.4831  -10.0273   69.8408 co      1  lig      -0.017298
     19 H_0i         75.5672   -6.8823   69.2010 h0      1  lig       0.153081
     20 H_0j         74.7029   -7.4307   66.9829 h6      1  lig       0.123341
     21 H_0k         72.4013   -9.9424   66.2607 h7      1  lig       0.092084
     22 H_0l         73.9110  -10.7584   65.9167 h8      1  lig       0.092084
     23 H_0m         73.0664   -8.0390   65.0786 h9      1  lig       0.334093
     24 H_0n         76.8384   -8.3070   62.8024 hb      1  lig       0.048563
     25 H_0o         76.6896   -6.6097   63.2011 hd      1  lig       0.048563
     26 H_0p         75.3693   -8.0660   60.8512 he      1  lig       0.033913
     27 H_0q         76.7276   -7.0084   60.7053 hf      1  lig       0.033913
     28 H_0r         74.0155   -6.3333   60.4785 hg      1  lig       0.056497
     29 H_0s         73.3404   -4.8745   62.2212 hh      1  lig       0.033261
     30 H_0t         74.9176   -4.8312   62.9341 hi      1  lig       0.033261
     31 H_0u         73.7291   -6.1692   64.3923 hj      1  lig       0.018016
     32 H_0v         72.9002   -7.0775   63.1207 hk      1  lig       0.018016
     33 H_0w         74.4186  -10.7419   70.6485 hl      1  lig       0.141056
     34 C_0x         75.3493   -4.8799   60.3259 cq      1  lig       0.669724
     35 O_0y         76.3614   -5.3010   59.5495 o1      1  lig      -0.684135
     36 O_0z         74.9433   -3.7386   60.3512 o2      1  lig      -0.579926
     37 H_10         76.6986   -4.5640   59.0349 hm      1  lig       0.477163
@<TRIPOS>BOND
     1     1     2    1
     2     2     3    2
     3     2    18    1
     4     3     4    1
     5     3    19    1
     6     4     5    2
     7     4    20    1
     8     5     6    1
     9     5    16    1
    10     6     7    1
    11     6    21    1
    12     6    22    1
    13     7     8    1
    14     7    23    1
    15     8     9    2
    16     8    10    1
    17    10    11    1
    18    10    15    1
    19    11    12    1
    20    11    24    1
    21    11    25    1
    22    12    13    1
    23    12    26    1
    24    12    27    1
    25    13    14    1
    26    13    28    1
    27    13    34    1
    28    14    15    1
    29    14    29    1
    30    14    30    1
    31    15    31    1
    32    15    32    1
    33    16    17    1
    34    16    18    2
    35    18    33    1
    36    34    35    1
    37    34    36    2
    38    35    37    1
