@<TRIPOS>MOLECULE
lig
  43   45 0 0 0
SMALL
NO_CHARGES


@<TRIPOS>ATOM
      1 Cl00         75.7005   -8.3852   71.6130 a0      1  lig      -0.105063
      2 C_01         75.0789   -8.7869   70.0563 c4      1  lig      -0.047311
      3 C_02         75.1489   -7.8599   69.0204 c5      1  lig      -0.090271
      4 C_03         74.6410   -8.1753   67.7631 c6      1  lig      -0.146730
      5 C_04         74.0387   -9.4206   67.5315 c7      1  lig       0.112097
      6 C_05         73.4762   -9.7924   66.1600 c8      1  lig       0.035919
      7 N_06         73.6963   -8.8331   65.0704 n0      1  lig      -0.578651
      8 C_07         74.7745   -8.7735   64.2669 c9      1  lig       0.606085
      9 O_08         75.6048   -9.6816   64.2760 o0      1  lig      -0.561897
     10 N_09         74.9020   -7.6621   63.4859 ng      1  lig      -0.187224
     11 C_0a         76.1664   -7.4521   62.7494 cb      1  lig       0.044507
     12 C_0b         75.8125   -7.1672   61.2765 ci      1  lig      -0.052182
     13 C_0c         74.8402   -5.9752   61.0977 cj      1  lig       0.141300
     14 C_0d         74.2179   -5.4892   62.4243 ck      1  lig       0.018185
     15 C_0e         73.8472   -6.6180   63.4084 cm      1  lig      -0.039963
     16 O_0f         75.3493   -4.8799   60.3259 o1      1  lig      -0.545342
     17 C_0g         76.4309   -4.1205   60.7396 cn      1  lig       0.958065
     18 N_0h         77.2628   -4.5657   61.7246 nr      1  lig      -0.364200
     19 C_0i         78.2752   -3.7340   62.0842 co      1  lig       0.044781
     20 C_0j         78.4576   -2.4829   61.4929 cq      1  lig      -0.362023
     21 C_0k         77.5601   -2.1286   60.4870 cr      1  lig       0.299913
     22 N_0l         76.5469   -2.9360   60.0940 nw      1  lig      -0.672884
     23 C_0m         73.9548  -10.3439   68.5892 cs      1  lig      -0.065178
     24 Cl0n         73.1947  -11.8871   68.3895 a1      1  lig      -0.109655
     25 C_0o         74.4831  -10.0273   69.8408 ct      1  lig      -0.016379
     26 H_0p         75.5672   -6.8823   69.2010 h0      1  lig       0.155975
     27 H_0q         74.7029   -7.4307   66.9829 h6      1  lig       0.106975
     28 H_0r         72.4013   -9.9424   66.2607 h7      1  lig       0.094670
     29 H_0s         73.9110  -10.7584   65.9167 h8      1  lig       0.094670
     30 H_0t         73.0664   -8.0390   65.0786 h9      1  lig       0.335547
     31 H_0u         76.8384   -8.3070   62.8024 hb      1  lig       0.018300
     32 H_0v         76.6896   -6.6097   63.2011 hd      1  lig       0.018300
     33 H_0w         75.3693   -8.0660   60.8512 he      1  lig       0.044025
     34 H_0x         76.7276   -7.0084   60.7053 hf      1  lig       0.044025
     35 H_0y         74.0155   -6.3333   60.4785 hg      1  lig       0.102457
     36 H_0z         73.3404   -4.8745   62.2212 hh      1  lig       0.016819
     37 H_10         74.9176   -4.8312   62.9341 hi      1  lig       0.016819
     38 H_11         73.7291   -6.1692   64.3923 hj      1  lig       0.030294
     39 H_12         72.9002   -7.0775   63.1207 hk      1  lig       0.030294
     40 H_13         78.9351   -4.0772   62.8676 hl      1  lig       0.160089
     41 H_14         79.2491   -1.8165   61.7944 hm      1  lig       0.160429
     42 H_15         77.6263   -1.1815   59.9782 hq      1  lig       0.113197
     43 H_16         74.4186  -10.7419   70.6485 hr      1  lig       0.141216
@<TRIPOS>BOND
     1     1     2    1
     2     2     3    2
     3     2    25    1
     4     3     4    1
     5     3    26    1
     6     4     5    2
     7     4    27    1
     8     5     6    1
     9     5    23    1
    10     6     7    1
    11     6    28    1
    12     6    29    1
    13     7     8    1
    14     7    30    1
    15     8     9    2
    16     8    10    1
    17    10    11    1
    18    10    15    1
    19    11    12    1
    20    11    31    1
    21    11    32    1
    22    12    13    1
    23    12    33    1
    24    12    34    1
    25    13    14    1
    26    13    16    1
    27    13    35    1
    28    14    15    1
    29    14    36    1
    30    14    37    1
    31    15    38    1
    32    15    39    1
    33    16    17    1
    34    17    18    2
    35    17    22    1
    36    18    19    1
    37    19    20    2
    38    19    40    1
    39    20    21    1
    40    20    41    1
    41    21    22    2
    42    21    42    1
    43    23    24    1
    44    23    25    2
    45    25    43    1
