@<TRIPOS>MOLECULE
lig
  47   49 0 0 0
SMALL
NO_CHARGES


@<TRIPOS>ATOM
      1 Cl00         75.7005   -8.3852   71.6130 a0      1  lig      -0.114466
      2 C_01         75.0789   -8.7869   70.0563 c4      1  lig      -0.043350
      3 C_02         75.1489   -7.8599   69.0204 c5      1  lig      -0.089359
      4 C_03         74.6410   -8.1753   67.7631 c6      1  lig      -0.148233
      5 C_04         74.0387   -9.4206   67.5315 c7      1  lig       0.125534
      6 C_05         73.4762   -9.7924   66.1600 c8      1  lig       0.039969
      7 N_06         73.6963   -8.8331   65.0704 n0      1  lig      -0.627214
      8 C_07         74.7788   -8.7751   64.2647 c9      1  lig       0.658997
      9 O_08         75.6048   -9.6817   64.2760 o0      1  lig      -0.580010
     10 N_09         74.9022   -7.6620   63.4857 ng      1  lig      -0.213745
     11 C_0a         76.1664   -7.4522   62.7493 cb      1  lig       0.003359
     12 C_0b         75.8128   -7.1669   61.2763 ci      1  lig      -0.006450
     13 C_0c         74.8472   -5.9577   61.0977 cj      1  lig       0.138415
     14 C_0d         74.2182   -5.4890   62.4247 ck      1  lig      -0.005793
     15 C_0e         73.8473   -6.6181   63.4083 cm      1  lig      -0.012971
     16 O_0f         75.3651   -4.8270   60.3599 o1      1  lig      -0.433443
     17 C_0g         76.2740   -3.9267   60.9065 cn      1  lig       0.175460
     18 C_0h         77.3476   -4.3079   61.7096 co      1  lig      -0.160178
     19 C_0i         78.2901   -3.3823   62.1528 cq      1  lig      -0.206404
     20 C_0j         78.1673   -2.0300   61.8192 cr      1  lig       0.044712
     21 C_0k         77.0788   -1.6340   61.0354 cs      1  lig      -0.205094
     22 C_0l         76.1450   -2.5714   60.5960 ct      1  lig      -0.151613
     23 C_0m         73.9548  -10.3439   68.5892 cw      1  lig      -0.063051
     24 Cl0n         73.1947  -11.8871   68.3895 a1      1  lig      -0.127151
     25 C_0o         74.4831  -10.0273   69.8408 cA      1  lig      -0.026655
     26 H_0p         75.5672   -6.8823   69.2010 h0      1  lig       0.164706
     27 H_0q         74.7029   -7.4307   66.9829 h6      1  lig       0.117705
     28 H_0r         72.4013   -9.9424   66.2607 h7      1  lig       0.089127
     29 H_0s         73.9110  -10.7584   65.9167 h8      1  lig       0.089127
     30 H_0t         72.9914   -7.9700   65.0968 h9      1  lig       0.348061
     31 H_0u         76.8385   -8.3071   62.8024 hb      1  lig       0.056035
     32 H_0v         76.6889   -6.6115   63.2029 hd      1  lig       0.056035
     33 H_0w         75.3693   -8.0660   60.8512 he      1  lig       0.026893
     34 H_0x         76.7414   -7.0121   60.6988 hf      1  lig       0.026893
     35 H_0y         74.0157   -6.3331   60.4785 hg      1  lig       0.050482
     36 H_0z         73.3405   -4.8745   62.2212 hh      1  lig       0.046718
     37 H_10         74.9236   -4.8191   62.9476 hi      1  lig       0.046718
     38 H_11         73.7291   -6.1692   64.3923 hj      1  lig       0.012353
     39 H_12         72.9002   -7.0775   63.1206 hk      1  lig       0.012353
     40 H_13         79.1217   -3.7050   62.7648 hl      1  lig       0.146295
     41 H_14         76.9665   -0.5902   60.7744 hm      1  lig       0.148378
     42 H_15         74.4186  -10.7419   70.6485 hq      1  lig       0.137263
     43 H_16         77.5047   -5.3295   61.9735 hr      1  lig       0.132670
     44 H_17         75.3088   -2.2103   60.0330 ht      1  lig       0.108870
     45 C_18         79.1764   -1.0273   62.3008 cB      1  lig       0.751670
     46 O_19         79.1666    0.1115   61.7778 o2      1  lig      -0.771321
     47 O_1a         79.9701   -1.3820   63.2034 o3      1  lig      -0.768297
@<TRIPOS>BOND
     1     1     2    1
     2     2     3    2
     3     2    25    1
     4     3     4    1
     5     3    26    1
     6     4     5    2
     7     4    27    1
     8     5     6    1
     9     5    23    1
    10     6     7    1
    11     6    28    1
    12     6    29    1
    13     7     8    1
    14     7    30    1
    15     8     9    2
    16     8    10    1
    17    10    11    1
    18    10    15    1
    19    11    12    1
    20    11    31    1
    21    11    32    1
    22    12    13    1
    23    12    33    1
    24    12    34    1
    25    13    14    1
    26    13    16    1
    27    13    35    1
    28    14    15    1
    29    14    36    1
    30    14    37    1
    31    15    38    1
    32    15    39    1
    33    16    17    1
    34    17    18    2
    35    17    22    1
    36    18    19    1
    37    18    43    1
    38    19    20    2
    39    19    40    1
    40    20    21    1
    41    20    45    1
    42    21    22    2
    43    21    41    1
    44    22    44    1
    45    23    24    1
    46    23    25    2
    47    25    42    1
    48    45    46    1
    49    45    47    2
