@<TRIPOS>MOLECULE
lig
  48   50 0 0 0
SMALL
NO_CHARGES


@<TRIPOS>ATOM
      1 Cl00         75.7005   -8.3852   71.6130 a0      1  lig      -0.101786
      2 C_01         75.0789   -8.7869   70.0563 c4      1  lig      -0.046341
      3 C_02         75.1489   -7.8599   69.0204 c5      1  lig      -0.086507
      4 C_03         74.6410   -8.1753   67.7631 c6      1  lig      -0.159044
      5 C_04         74.0387   -9.4206   67.5315 c7      1  lig       0.112543
      6 C_05         73.4762   -9.7924   66.1600 c8      1  lig       0.027431
      7 N_06         73.6963   -8.8331   65.0704 n0      1  lig      -0.576456
      8 C_07         74.7797   -8.7754   64.2643 c9      1  lig       0.614772
      9 O_08         75.6049   -9.6818   64.2760 o0      1  lig      -0.555058
     10 N_09         74.9023   -7.6620   63.4857 ng      1  lig      -0.209116
     11 C_0a         76.1664   -7.4522   62.7493 cb      1  lig       0.033815
     12 C_0b         75.8129   -7.1668   61.2763 ci      1  lig      -0.020692
     13 C_0c         74.8474   -5.9579   61.0981 cj      1  lig       0.091038
     14 C_0d         74.2183   -5.4889   62.4247 ck      1  lig       0.055397
     15 C_0e         73.8474   -6.6181   63.4083 cm      1  lig      -0.021028
     16 O_0f         75.3659   -4.8259   60.3634 o1      1  lig      -0.405387
     17 C_0g         76.2741   -3.9258   60.9103 cn      1  lig       0.321737
     18 C_0h         77.3536   -4.3083   61.7031 co      1  lig      -0.191338
     19 C_0i         78.2983   -3.3875   62.1452 cq      1  lig      -0.219953
     20 C_0j         78.1638   -2.0354   61.8230 cr      1  lig      -0.012780
     21 C_0k         77.0632   -1.6294   61.0618 cs      1  lig      -0.165776
     22 C_0l         76.1371   -2.5693   60.6156 ct      1  lig      -0.208096
     23 C_0m         73.9548  -10.3439   68.5892 cw      1  lig      -0.064033
     24 Cl0n         73.1947  -11.8871   68.3895 a1      1  lig      -0.107622
     25 C_0o         74.4831  -10.0273   69.8408 cA      1  lig      -0.015916
     26 H_0p         75.5672   -6.8823   69.2010 h0      1  lig       0.155482
     27 H_0q         74.7029   -7.4307   66.9829 h6      1  lig       0.114834
     28 H_0r         72.4013   -9.9424   66.2607 h7      1  lig       0.097119
     29 H_0s         73.9110  -10.7584   65.9167 h8      1  lig       0.097119
     30 H_0t         72.9783   -7.9582   65.1000 h9      1  lig       0.337918
     31 H_0u         76.8385   -8.3071   62.8024 hb      1  lig       0.029780
     32 H_0v         76.6889   -6.6115   63.2029 hd      1  lig       0.029780
     33 H_0w         75.3692   -8.0660   60.8512 he      1  lig       0.044017
     34 H_0x         76.7413   -7.0121   60.6988 hf      1  lig       0.044017
     35 H_0y         74.0158   -6.3330   60.4785 hg      1  lig       0.096821
     36 H_0z         73.3405   -4.8745   62.2212 hh      1  lig       0.016262
     37 H_10         74.9236   -4.8192   62.9476 hi      1  lig       0.016262
     38 H_11         73.7290   -6.1692   64.3923 hj      1  lig       0.026261
     39 H_12         72.9002   -7.0775   63.1206 hk      1  lig       0.026261
     40 H_13         79.1289   -3.7364   62.7452 hl      1  lig       0.182549
     41 H_14         76.9176   -0.5897   60.8028 hm      1  lig       0.184790
     42 H_15         74.4186  -10.7419   70.6485 hq      1  lig       0.141327
     43 H_16         77.5049   -5.3324   61.9572 hr      1  lig       0.181178
     44 H_17         75.2926   -2.2170   60.0569 ht      1  lig       0.149849
     45 C_18         79.1763   -1.0448   62.3296 cB      1  lig       0.719435
     46 O_19         79.1740    0.1574   61.7141 o2      1  lig      -0.643264
     47 O_1a         79.9657   -1.2956   63.2314 o3      1  lig      -0.589093
     48 H_1b         79.8812    0.6150   62.1683 hu      1  lig       0.451492
@<TRIPOS>BOND
     1     1     2    1
     2     2     3    2
     3     2    25    1
     4     3     4    1
     5     3    26    1
     6     4     5    2
     7     4    27    1
     8     5     6    1
     9     5    23    1
    10     6     7    1
    11     6    28    1
    12     6    29    1
    13     7     8    1
    14     7    30    1
    15     8     9    2
    16     8    10    1
    17    10    11    1
    18    10    15    1
    19    11    12    1
    20    11    31    1
    21    11    32    1
    22    12    13    1
    23    12    33    1
    24    12    34    1
    25    13    14    1
    26    13    16    1
    27    13    35    1
    28    14    15    1
    29    14    36    1
    30    14    37    1
    31    15    38    1
    32    15    39    1
    33    16    17    1
    34    17    18    2
    35    17    22    1
    36    18    19    1
    37    18    43    1
    38    19    20    2
    39    19    40    1
    40    20    21    1
    41    20    45    1
    42    21    22    2
    43    21    41    1
    44    22    44    1
    45    23    24    1
    46    23    25    2
    47    25    42    1
    48    45    46    1
    49    45    47    2
    50    46    48    1
