@<TRIPOS>MOLECULE
lig
  67   71 0 0 0
SMALL
NO_CHARGES


@<TRIPOS>ATOM
      1 C_00         -0.7477    8.1561   18.6794 c4      1  lig      -0.089085
      2 N_01          0.6031    8.1917   19.2465 n0      1  lig      -0.071028
      3 C_02          1.6853    7.9007   18.3028 c5      1  lig      -0.238841
      4 C_03          0.7988    8.5327   20.5436 c6      1  lig       0.376985
      5 O_04         -0.1349    8.8746   21.2718 o0      1  lig      -0.535144
      6 C_05          2.2182    8.4824   21.1509 c7      1  lig       0.090475
      7 C_06          2.8113    9.9111   21.2532 c8      1  lig      -0.052115
      8 C_07          4.2181    9.9048   21.8815 c9      1  lig      -0.037745
      9 C_08          4.2378    9.1761   23.2440 cb      1  lig      -0.014096
     10 N_09          5.6004    9.1552   23.7698 ng      1  lig      -0.065956
     11 C_0a          5.9662    9.2970   25.0526 ci      1  lig       0.347849
     12 O_0b          5.1685    9.4677   25.9730 o1      1  lig      -0.525552
     13 C_0c          7.4435    9.2035   25.3244 cj      1  lig       0.207005
     14 C_0d          7.9004    8.5897   26.4894 ck      1  lig      -0.187873
     15 C_0e          9.2842    8.4245   26.7061 cm      1  lig       0.117881
     16 C_0f          9.8111    7.7770   27.8421 cn      1  lig      -0.239685
     17 C_0g         11.1821    7.6164   27.9978 co      1  lig      -0.038411
     18 C_0h         12.0575    8.0592   27.0140 cq      1  lig      -0.004748
     19 Cl0i         13.7536    7.7974   27.1891 a0      1  lig      -0.082129
     20 C_0j         11.5677    8.7116   25.8901 cr      1  lig      -0.154779
     21 C_0k         10.1832    8.9222   25.7215 cs      1  lig       0.092201
     22 C_0l          9.6225    9.5826   24.6088 ct      1  lig       0.038767
     23 N_0m          8.2952    9.7250   24.4008 nr      1  lig      -0.424214
     24 C_0n          3.6260    7.7457   23.1737 cw      1  lig      -0.008660
     25 N_0o          4.4768    6.8192   22.4094 nw      1  lig      -0.160581
     26 C_0p          4.4837    5.4751   22.5114 cA      1  lig       0.526548
     27 O_0q          3.7511    4.8664   23.2933 o2      1  lig      -0.498422
     28 C_0r          5.4355    4.7847   21.6158 cB      1  lig       0.097655
     29 N_0s          6.2593    5.3788   20.7571 nA      1  lig      -0.313558
     30 C_0t          6.9494    4.4673   20.1166 cC      1  lig       0.098183
     31 C_0u          7.9702    4.5720   19.0436 cD      1  lig      -0.022481
     32 N_0v          8.0429    3.1732   18.4636 nB      1  lig      -0.179317
     33 C_0w          9.3528    2.8311   17.8712 cE      1  lig      -0.265354
     34 C_0x          7.5186    2.2508   19.5412 cF      1  lig       0.021709
     35 C_0y          6.7335    3.1618   20.3944 cG      1  lig      -0.075443
     36 S_0z          5.5320    3.0171   21.6210 s0      1  lig       0.091536
     37 C_10          2.2111    7.8056   22.5510 cH      1  lig      -0.077438
     38 H_11         -0.7955    7.5593   17.7679 h0      1  lig       0.069438
     39 H_12         -1.4649    7.7180   19.3756 h6      1  lig       0.069438
     40 H_13         -1.0813    9.1661   18.4389 h7      1  lig       0.069438
     41 H_14          1.3412    7.9000   17.2680 h8      1  lig       0.091337
     42 H_15          2.4765    8.6491   18.3648 h9      1  lig       0.091337
     43 H_16          2.1162    6.9199   18.5070 hb      1  lig       0.091337
     44 H_17          2.8741    7.8837   20.5216 hd      1  lig      -0.034138
     45 H_18          2.8637   10.3684   20.2642 he      1  lig       0.036583
     46 H_19          2.1563   10.5473   21.8509 hf      1  lig       0.036583
     47 H_1a          4.9187    9.4281   21.1946 hg      1  lig       0.034400
     48 H_1b          4.5618   10.9327   22.0023 hh      1  lig       0.034400
     49 H_1c          3.5991    9.7281   23.9366 hi      1  lig       0.103026
     50 H_1d          6.3416    9.0002   23.1023 hj      1  lig       0.121211
     51 H_1e          7.2135    8.2232   27.2381 hk      1  lig       0.160029
     52 H_1f          9.1526    7.3965   28.6088 hl      1  lig       0.181146
     53 H_1g         11.5710    7.1448   28.8884 hm      1  lig       0.146717
     54 H_1h         12.2518    9.0638   25.1315 hq      1  lig       0.149531
     55 H_1i         10.2542   10.0174   23.8481 hr      1  lig       0.133489
     56 H_1j          3.5627    7.3646   24.1950 ht      1  lig       0.097947
     57 H_1k          5.1224    7.2299   21.7500 hu      1  lig       0.048701
     58 H_1l          7.6874    5.2803   18.2646 hv      1  lig       0.143838
     59 H_1m          8.9361    4.8681   19.4555 hy      1  lig       0.143838
     60 H_1n          9.3161    1.8447   17.4076 hz      1  lig       0.161865
     61 H_1o          9.6252    3.5552   17.1027 hA      1  lig       0.161865
     62 H_1p         10.1363    2.8247   18.6302 hB      1  lig       0.161865
     63 H_1q          6.8980    1.4609   19.1174 hC      1  lig       0.140790
     64 H_1r          8.3252    1.8006   20.1217 hD      1  lig       0.140790
     65 H_1s          1.5600    8.3608   23.2282 hE      1  lig       0.063027
     66 H_1t          1.7861    6.8029   22.4831 hF      1  lig       0.063027
     67 H_1u          7.3686    3.1605   17.7115 hG      1  lig       0.343006
@<TRIPOS>BOND
     1     1     2    1
     2     1    38    1
     3     1    39    1
     4     1    40    1
     5     2     3    1
     6     2     4    1
     7     3    41    1
     8     3    42    1
     9     3    43    1
    10     4     5    2
    11     4     6    1
    12     6    37    1
    13     6     7    1
    14     6    44    1
    15     7     8    1
    16     7    45    1
    17     7    46    1
    18     8     9    1
    19     8    47    1
    20     8    48    1
    21     9    10    1
    22     9    24    1
    23     9    49    1
    24    10    11    1
    25    10    50    1
    26    11    12    2
    27    11    13    1
    28    13    23    1
    29    13    14    2
    30    14    15    1
    31    14    51    1
    32    15    21    2
    33    15    16    1
    34    16    17    2
    35    16    52    1
    36    17    18    1
    37    17    53    1
    38    18    19    1
    39    18    20    2
    40    20    21    1
    41    20    54    1
    42    21    22    1
    43    22    23    2
    44    22    55    1
    45    24    25    1
    46    24    37    1
    47    24    56    1
    48    25    26    1
    49    25    57    1
    50    26    27    2
    51    26    28    1
    52    28    36    1
    53    28    29    2
    54    29    30    1
    55    30    35    2
    56    30    31    1
    57    31    32    1
    58    31    58    1
    59    31    59    1
    60    32    33    1
    61    32    34    1
    62    32    67    1
    63    33    60    1
    64    33    61    1
    65    33    62    1
    66    34    35    1
    67    34    63    1
    68    34    64    1
    69    35    36    1
    70    37    65    1
    71    37    66    1
