@<TRIPOS>MOLECULE
lig
  68   72 0 0 0
SMALL
NO_CHARGES


@<TRIPOS>ATOM
      1 C_00         -0.7481    8.1529   18.6802 c4      1  lig      -0.088581
      2 N_01          0.6028    8.1891   19.2471 n0      1  lig      -0.064276
      3 C_02          1.6849    7.8962   18.3037 c5      1  lig      -0.247881
      4 C_03          0.7988    8.5321   20.5436 c6      1  lig       0.359516
      5 O_04         -0.1347    8.8753   21.2714 o0      1  lig      -0.532278
      6 C_05          2.2182    8.4824   21.1509 c7      1  lig       0.119316
      7 C_06          2.8113    9.9111   21.2532 c8      1  lig      -0.022930
      8 C_07          4.2181    9.9048   21.8815 c9      1  lig      -0.020381
      9 C_08          4.2378    9.1761   23.2440 cb      1  lig      -0.050806
     10 N_09          5.6004    9.1552   23.7698 ng      1  lig      -0.192331
     11 C_0a          5.9662    9.2970   25.0526 ci      1  lig       0.456257
     12 O_0b          5.1685    9.4677   25.9730 o1      1  lig      -0.525262
     13 C_0c          7.4435    9.2035   25.3244 cj      1  lig      -0.061321
     14 C_0d          8.2952    9.7250   24.4008 ck      1  lig      -0.167237
     15 C_0e          9.6225    9.5826   24.6088 cm      1  lig      -0.225770
     16 C_0f         10.1832    8.9222   25.7215 cn      1  lig       0.083895
     17 C_0g         11.5677    8.7116   25.8901 co      1  lig      -0.104563
     18 C_0h         12.0575    8.0592   27.0140 cq      1  lig      -0.016930
     19 Cl0i         13.7541    7.7991   27.1884 a0      1  lig      -0.089859
     20 C_0j         11.1821    7.6164   27.9978 cr      1  lig      -0.048546
     21 C_0k          9.8111    7.7770   27.8421 cs      1  lig      -0.241642
     22 C_0l          9.2842    8.4245   26.7061 ct      1  lig       0.111310
     23 C_0m          7.9004    8.5897   26.4894 cw      1  lig      -0.120721
     24 C_0n          3.6260    7.7457   23.1737 cA      1  lig       0.010114
     25 N_0o          4.4768    6.8192   22.4094 nr      1  lig      -0.122805
     26 C_0p          4.4837    5.4751   22.5114 cB      1  lig       0.511260
     27 O_0q          3.7511    4.8664   23.2933 o2      1  lig      -0.498966
     28 C_0r          5.4355    4.7847   21.6158 cC      1  lig       0.100273
     29 N_0s          6.2593    5.3788   20.7571 nw      1  lig      -0.321330
     30 C_0t          6.9494    4.4673   20.1166 cD      1  lig       0.106624
     31 C_0u          7.9702    4.5720   19.0436 cE      1  lig      -0.017663
     32 N_0v          8.0429    3.1732   18.4636 nA      1  lig      -0.194156
     33 C_0w          9.3528    2.8311   17.8713 cF      1  lig      -0.254125
     34 C_0x          7.5186    2.2508   19.5412 cG      1  lig       0.042851
     35 C_0y          6.7335    3.1618   20.3944 cH      1  lig      -0.093297
     36 S_0z          5.5320    3.0171   21.6210 s0      1  lig       0.099442
     37 C_10          2.2111    7.8056   22.5510 cI      1  lig      -0.096090
     38 H_11         -0.7961    7.5549   17.7696 h0      1  lig       0.069449
     39 H_12         -1.4652    7.7160   19.3772 h6      1  lig       0.069449
     40 H_13         -1.0815    9.1627   18.4384 h7      1  lig       0.069449
     41 H_14          1.3405    7.8933   17.2690 h8      1  lig       0.094033
     42 H_15          2.4759    8.6448   18.3640 h9      1  lig       0.094033
     43 H_16          2.1159    6.9158   18.5099 hb      1  lig       0.094033
     44 H_17          2.8741    7.8837   20.5216 hd      1  lig      -0.049021
     45 H_18          2.8632   10.3685   20.2643 he      1  lig       0.030770
     46 H_19          2.1562   10.5471   21.8511 hf      1  lig       0.030770
     47 H_1a          4.9196    9.4286   21.1952 hg      1  lig       0.017328
     48 H_1b          4.5615   10.9327   22.0033 hh      1  lig       0.017328
     49 H_1c          3.5999    9.7299   23.9360 hi      1  lig       0.110330
     50 H_1d          6.3402    8.9972   23.1015 hj      1  lig       0.218105
     51 H_1e          7.9180   10.2420   23.5303 hk      1  lig       0.117296
     52 H_1f         10.3210    9.9945   23.8950 hl      1  lig       0.169121
     53 H_1g         12.2665    9.0580   25.1424 hm      1  lig       0.130896
     54 H_1h         11.5659    7.1444   28.8903 hq      1  lig       0.143224
     55 H_1i          9.1405    7.4006   28.6010 hr      1  lig       0.176242
     56 H_1j          7.1926    8.2359   27.2258 ht      1  lig       0.158389
     57 H_1k          3.5593    7.3645   24.1947 hu      1  lig       0.103751
     58 H_1l          5.1140    7.2287   21.7410 hv      1  lig       0.037063
     59 H_1m          7.6873    5.2803   18.2646 hy      1  lig       0.144106
     60 H_1n          8.9361    4.8681   19.4554 hz      1  lig       0.144106
     61 H_1o          9.3161    1.8448   17.4075 hA      1  lig       0.159539
     62 H_1p          9.6252    3.5552   17.1027 hB      1  lig       0.159539
     63 H_1q         10.1363    2.8246   18.6303 hC      1  lig       0.159539
     64 H_1r          6.8980    1.4609   19.1174 hD      1  lig       0.137888
     65 H_1s          8.3252    1.8006   20.1217 hE      1  lig       0.137888
     66 H_1t          1.5597    8.3603   23.2283 hF      1  lig       0.065037
     67 H_1u          1.7863    6.8028   22.4828 hG      1  lig       0.065037
     68 H_1v          7.3686    3.1606   17.7115 hH      1  lig       0.344172
@<TRIPOS>BOND
     1     1     2    1
     2     1    38    1
     3     1    39    1
     4     1    40    1
     5     2     3    1
     6     2     4    1
     7     3    41    1
     8     3    42    1
     9     3    43    1
    10     4     5    2
    11     4     6    1
    12     6    37    1
    13     6     7    1
    14     6    44    1
    15     7     8    1
    16     7    45    1
    17     7    46    1
    18     8     9    1
    19     8    47    1
    20     8    48    1
    21     9    10    1
    22     9    24    1
    23     9    49    1
    24    10    11    1
    25    10    50    1
    26    11    12    2
    27    11    13    1
    28    13    23    1
    29    13    14    2
    30    14    15    1
    31    14    51    1
    32    15    16    2
    33    15    52    1
    34    16    22    1
    35    16    17    1
    36    17    18    2
    37    17    53    1
    38    18    19    1
    39    18    20    1
    40    20    21    2
    41    20    54    1
    42    21    22    1
    43    21    55    1
    44    22    23    2
    45    23    56    1
    46    24    25    1
    47    24    37    1
    48    24    57    1
    49    25    26    1
    50    25    58    1
    51    26    27    2
    52    26    28    1
    53    28    36    1
    54    28    29    2
    55    29    30    1
    56    30    35    2
    57    30    31    1
    58    31    32    1
    59    31    59    1
    60    31    60    1
    61    32    33    1
    62    32    34    1
    63    32    68    1
    64    33    61    1
    65    33    62    1
    66    33    63    1
    67    34    35    1
    68    34    64    1
    69    34    65    1
    70    35    36    1
    71    37    66    1
    72    37    67    1
